# ================================================================
# Orca input file made by Matty Jones
# ================================================================
! ZINDO/S 
! NOPOP
! NOMOPRINT
* xyz 0   1
 C  -4.62313  -1.76637  -2.03171
 C  -3.39912  -1.12868  -1.82425
 C  -2.49210  -1.86108  -0.99649
 C  -3.00249  -3.08327  -0.54807
 S  -4.52766  -3.19187  -1.19031
 H  -2.71891  -0.55559  -2.62174
 C  -1.02768  -1.26098  -0.65583
 C  -0.88119  0.29388  0.04999
 C  0.65678  1.02348  0.26362
 H  0.37193  2.14850  0.42313
 H  1.18035  0.94372  -0.76442
 H  -1.49533  1.00676  -0.61269
 H  -1.35603  0.22020  1.09601
 H  -0.47054  -1.98509  0.06039
 H  -0.40749  -1.20693  -1.64374
 C  1.74099  0.70530  1.44200
 C  3.33672  1.12209  0.99228
 C  3.99075  2.62861  1.35793
 H  3.98973  2.77476  2.50497
 H  3.36937  3.45918  0.84885
 H  5.08187  2.66403  0.96744
 H  4.03312  0.34442  1.48447
 H  3.39331  1.02513  -0.15679
 H  1.72757  -0.42074  1.69316
 H  1.48677  1.30623  2.39542
 H  -5.44127  -1.41372  -2.60607
 H  -2.51634  -3.79196  0.07243
*
