# ================================================================
# Orca input file made by Matty Jones
# ================================================================
! ZINDO/S 
! NOPOP
! NOMOPRINT
* xyz 0   1
 C  1.93341  4.46699  -0.85729
 C  1.57636  3.11827  -0.82055
 C  2.29089  2.35142  0.15190
 C  3.21682  3.09839  0.88675
 S  3.10430  4.64655  0.30283
 H  0.83382  2.64674  -1.54983
 C  1.95684  0.77823  0.29781
 C  0.29350  0.39684  0.41083
 C  -0.13688  -1.24861  0.48506
 H  0.82491  -1.86402  0.30476
 H  -0.51490  -1.45759  1.55653
 H  -0.21771  0.84835  -0.51632
 H  -0.10780  0.90787  1.36079
 H  2.46072  0.34481  1.25804
 H  2.37077  0.20702  -0.61831
 C  -1.27514  -1.70740  -0.59593
 C  -2.81334  -2.15570  -0.03693
 C  -3.03878  -3.82807  0.00893
 H  -3.41420  -4.18223  -1.02835
 H  -3.82628  -4.09061  0.81439
 H  -2.03692  -4.34951  0.25666
 H  -3.60890  -1.69617  -0.72978
 H  -2.94682  -1.74846  1.03190
 H  -1.45507  -0.83862  -1.34174
 H  -0.86544  -2.61104  -1.19527
 H  1.53917  5.21814  -1.49286
 H  3.85667  2.74840  1.65597
*
