# ================================================================
# Orca input file made by Matty Jones
# ================================================================
! ZINDO/S 
! NOPOP
! NOMOPRINT
* xyz 0   1
 C  -4.90804  -1.16272  0.93632
 C  -3.64878  -1.02757  0.34990
 C  -2.56785  -1.45321  1.18338
 C  -2.97564  -1.92686  2.43425
 S  -4.62888  -1.79593  2.44305
 H  -3.29361  -0.05292  -0.20300
 C  -1.04983  -1.35864  0.63445
 C  -0.63607  0.14243  -0.07639
 C  0.89418  0.42654  -0.76765
 H  0.72014  1.17054  -1.63890
 H  1.24692  -0.58181  -1.21294
 H  -1.38026  0.32546  -0.93695
 H  -0.78493  0.93963  0.74290
 H  -0.29574  -1.53309  1.50324
 H  -0.86980  -2.17168  -0.17513
 C  2.06369  1.01998  0.19374
 C  3.53748  1.44789  -0.53514
 C  3.64971  1.33822  -2.21071
 H  3.47147  0.24428  -2.54003
 H  4.70833  1.67423  -2.53986
 H  2.85898  2.02906  -2.69620
 H  3.76139  2.54186  -0.24474
 H  4.35205  0.76322  -0.08927
 H  2.31156  0.23327  1.00649
 H  1.66630  1.97394  0.71689
 H  -5.84527  -0.91318  0.50863
 H  -2.35750  -2.29294  3.21367
*
