# ================================================================
# Orca input file made by Matty Jones
# ================================================================
! ZINDO/S 
! NOPOP
! NOMOPRINT
* xyz 0   1
 C  2.29898  3.79658  1.44833
 C  1.80317  2.60289  0.92186
 C  2.39543  1.42771  1.48082
 C  3.36380  1.69480  2.45358
 S  3.43524  3.34765  2.56925
 H  1.05465  2.53541  0.06097
 C  1.93949  -0.05285  0.99807
 C  0.28100  -0.53973  1.09912
 C  -1.19672  -0.53680  0.19936
 H  -1.67840  -1.55592  0.49629
 H  -1.81237  0.29875  0.72984
 H  0.40894  -1.67892  1.30159
 H  -0.04373  -0.02834  2.08866
 H  2.54469  -0.87935  1.54479
 H  2.18647  -0.15318  -0.14185
 C  -1.50827  -0.35414  -1.39440
 C  -1.71411  -1.79336  -2.27631
 C  -3.27333  -2.44495  -2.28483
 H  -3.35526  -3.23941  -1.44668
 H  -3.47447  -2.94415  -3.30971
 H  -4.04914  -1.60733  -2.10235
 H  -1.43068  -1.56782  -3.37103
 H  -0.99628  -2.58359  -1.84682
 H  -2.48279  0.25799  -1.52124
 H  -0.63936  0.22707  -1.88623
 H  2.01005  4.78232  1.18673
 H  3.93302  0.98867  3.00219
*
