# ================================================================
# Orca input file made by Matty Jones
# ================================================================
! ZINDO/S 
! NOPOP
! NOMOPRINT
* xyz 0   1
 C  -4.98252  -1.01182  1.13103
 C  -3.75480  -0.97057  0.46853
 C  -2.65046  -1.42111  1.25701
 C  -3.00795  -1.82013  2.54864
 S  -4.64853  -1.59762  2.64575
 H  -3.36485  -0.07172  -0.19470
 C  -1.16700  -1.42284  0.59146
 C  -0.61101  0.01673  -0.17482
 C  0.88046  -0.02579  -1.01405
 H  0.75784  0.77654  -1.84828
 H  0.90008  -1.06568  -1.52870
 H  -1.40114  0.33792  -0.94404
 H  -0.51054  0.81440  0.64805
 H  -1.11468  -2.24763  -0.22697
 H  -0.37733  -1.67081  1.40863
 C  2.34991  0.22065  -0.34854
 C  3.04862  1.76313  -0.42097
 C  3.99264  2.05908  -1.78817
 H  3.31317  2.43831  -2.64472
 H  4.52386  1.08500  -2.11452
 H  4.78475  2.86517  -1.53687
 H  2.20786  2.54676  -0.38059
 H  3.73071  1.87736  0.50266
 H  3.10249  -0.49739  -0.86262
 H  2.29233  -0.06170  0.77307
 H  -5.92891  -0.72840  0.74683
 H  -2.36499  -2.18783  3.30692
*
