# ================================================================
# Orca input file made by Matty Jones
# ================================================================
! ZINDO/S 
! NOPOP
! NOMOPRINT
* xyz 0   1
 C  2.07387  3.12002  0.81432
 C  1.38965  1.90741  0.71782
 C  1.96845  0.84786  1.48373
 C  3.11549  1.22573  2.18858
 S  3.34989  2.82835  1.83206
 H  0.31583  1.88578  0.33830
 C  1.29059  -0.58561  1.44682
 C  -0.39183  -0.52384  1.65605
 C  -1.05364  -0.33281  0.11953
 H  -2.02033  0.28814  0.21488
 H  -0.30290  0.22231  -0.55969
 H  -0.76319  -1.49241  2.14433
 H  -0.66829  0.38253  2.30951
 H  1.63974  -1.30214  2.27546
 H  1.52236  -1.10130  0.41980
 C  -1.33975  -1.76415  -0.59577
 C  -1.79299  -1.66747  -2.21895
 C  -1.84219  -0.12363  -2.88921
 H  -2.12451  -0.21020  -4.00901
 H  -0.80412  0.37808  -2.79507
 H  -2.63612  0.51136  -2.33733
 H  -1.03723  -2.29012  -2.82852
 H  -2.84334  -2.13145  -2.32009
 H  -0.38979  -2.42241  -0.53546
 H  -2.19558  -2.30020  -0.02843
 H  1.82933  4.03459  0.33751
 H  3.71060  0.61560  2.81881
*
