# ================================================================
# Orca input file made by Matty Jones
# ================================================================
! ZINDO/S 
! NOPOP
! NOMOPRINT
* xyz 0   1
 C  0.23328  2.25438  2.57584
 C  0.78790  1.38778  1.63282
 C  1.93194  0.66963  2.10151
 C  2.28246  0.97067  3.42129
 S  1.17404  2.09376  3.93167
 H  0.49413  1.54837  0.54272
 C  2.53904  -0.33546  0.97856
 C  1.33466  -0.61750  -0.27429
 C  -0.04230  -1.62096  -0.18143
 H  0.32074  -2.69578  -0.40646
 H  -0.37603  -1.57274  0.92791
 H  2.00088  -1.22418  -1.02809
 H  1.06594  0.34184  -0.84365
 H  2.80117  -1.36128  1.43936
 H  3.46793  0.12530  0.46973
 C  -1.37838  -1.33764  -1.10413
 C  -1.61516  0.05163  -2.06090
 C  -3.09506  0.08955  -2.88587
 H  -3.86998  -0.55908  -2.32328
 H  -2.94607  -0.32410  -3.95611
 H  -3.47335  1.18185  -2.94284
 H  -0.77032  0.10165  -2.83931
 H  -1.57077  0.97162  -1.37130
 H  -1.47892  -2.22649  -1.84287
 H  -2.29446  -1.36139  -0.39114
 H  -0.61129  2.88275  2.45148
 H  3.08798  0.56581  3.97881
*
