# ================================================================
# Orca input file made by Matty Jones
# ================================================================
! ZINDO/S 
! NOPOP
! NOMOPRINT
* xyz 0   1
 C  -4.59139  -1.82441  -2.10263
 C  -3.34275  -1.23683  -1.89401
 C  -2.52329  -1.92745  -0.94755
 C  -3.12792  -3.06610  -0.40608
 S  -4.62355  -3.15719  -1.11686
 H  -2.59290  -0.78364  -2.70093
 C  -1.02203  -1.41943  -0.56936
 C  -0.83129  0.21597  -0.05582
 C  0.59878  1.12249  0.32988
 H  0.13685  2.10907  0.75310
 H  1.07745  1.37516  -0.69205
 H  -1.28629  0.81796  -0.93101
 H  -1.50691  0.31766  0.87154
 H  -0.60202  -2.07255  0.30289
 H  -0.32678  -1.55246  -1.48492
 C  1.79375  0.74383  1.38261
 C  3.36844  1.22925  0.90455
 C  4.02944  2.70756  1.37117
 H  3.18590  3.48142  1.52622
 H  4.75191  3.07722  0.54449
 H  4.61812  2.56497  2.35741
 H  4.09430  0.43018  1.31457
 H  3.38382  1.21719  -0.24887
 H  1.81669  -0.40039  1.53496
 H  1.59573  1.25149  2.40165
 H  -5.35760  -1.48928  -2.75394
 H  -2.71647  -3.73169  0.30898
*
