# ================================================================
# Orca input file made by Matty Jones
# ================================================================
! ZINDO/S 
! NOPOP
! NOMOPRINT
* xyz 0   1
 C  -4.79380  -1.37337  -0.24880
 C  -3.59486  -0.67714  -0.08849
 C  -2.77176  -1.16840  0.97237
 C  -3.32355  -2.25805  1.65320
 S  -4.78029  -2.55217  0.91711
 H  -3.40403  0.31085  -0.62535
 C  -1.36929  -0.40131  1.18801
 C  -0.64456  -0.04268  -0.32216
 C  0.78624  0.83103  -0.51533
 H  0.93617  1.42328  0.47200
 H  0.58309  1.59882  -1.36260
 H  -0.46543  -1.06985  -0.82068
 H  -1.41237  0.54806  -0.94849
 H  -1.53765  0.59713  1.74929
 H  -0.62540  -1.05644  1.78997
 C  2.16907  0.05201  -0.85759
 C  3.43122  1.14616  -1.14561
 C  4.25882  1.55934  0.25574
 H  4.87256  2.52250  0.07020
 H  4.97030  0.69393  0.54557
 H  3.50005  1.74140  1.11078
 H  4.16940  0.66503  -1.88675
 H  2.99256  2.10598  -1.60904
 H  2.03347  -0.58461  -1.81299
 H  2.47251  -0.63822  0.01560
 H  -5.55295  -1.18768  -0.96491
 H  -2.89953  -2.78561  2.46897
*
