# ================================================================
# Orca input file made by Matty Jones
# ================================================================
! ZINDO/S 
! NOPOP
! NOMOPRINT
* xyz 0   1
 C  -3.26834  -2.02967  1.93765
 C  -2.01605  -1.79970  1.36601
 C  -0.91740  -2.22446  2.17644
 C  -1.30411  -2.79269  3.39417
 S  -2.96170  -2.74041  3.40391
 H  -1.90549  -1.63490  0.22990
 C  0.51990  -1.91558  1.47964
 C  0.44956  -0.24429  0.95956
 C  1.32629  0.89801  0.01472
 H  1.32777  1.90777  0.56658
 H  2.40283  0.52438  -0.12761
 H  -0.61738  -0.07239  0.57440
 H  0.52135  0.26487  2.00974
 H  1.38886  -2.03796  2.22246
 H  0.68954  -2.58005  0.54396
 C  0.54911  1.03442  -1.42655
 C  0.56402  2.49025  -2.29689
 C  1.67037  2.69772  -3.54294
 H  1.24695  2.22184  -4.50975
 H  2.67055  2.19135  -3.26182
 H  1.84022  3.83070  -3.71473
 H  -0.49133  2.65346  -2.73338
 H  0.79283  3.29198  -1.51952
 H  0.98682  0.22982  -2.13642
 H  -0.57901  0.81071  -1.28391
 H  -4.21571  -1.79866  1.52205
 H  -0.67047  -3.17651  4.15232
*
