# ================================================================
# Orca input file made by Matty Jones
# ================================================================
! ZINDO/S 
! NOPOP
! NOMOPRINT
* xyz 0   1
 C  2.29362  3.91801  2.28552
 C  1.86738  3.06342  1.26774
 C  2.11581  1.67916  1.52537
 C  2.74138  1.43949  2.75278
 S  2.95124  2.93191  3.44493
 H  2.00529  3.22423  0.10757
 C  1.68907  0.59168  0.39051
 C  0.51605  -0.66663  0.53299
 C  -1.06927  -0.24554  0.04037
 H  -1.78391  -0.80100  0.76087
 H  -1.17360  0.89299  0.22728
 H  0.86140  -1.55312  -0.11034
 H  0.46656  -0.96927  1.63926
 H  2.65421  0.00353  0.08625
 H  1.32109  1.16978  -0.55440
 C  -1.54848  -0.55671  -1.49805
 C  -2.75562  -1.71795  -1.82158
 C  -2.32909  -3.31224  -2.15119
 H  -2.99133  -4.02173  -1.51906
 H  -1.21632  -3.48011  -1.88817
 H  -2.50095  -3.53103  -3.27551
 H  -3.46196  -1.72998  -0.90958
 H  -3.33970  -1.33287  -2.74198
 H  -1.93042  0.43299  -1.96336
 H  -0.61878  -0.90421  -2.09632
 H  2.21377  4.97467  2.31176
 H  3.02258  0.50052  3.15634
*
