# ================================================================
# Orca input file made by Matty Jones
# ================================================================
! ZINDO/S 
! NOPOP
! NOMOPRINT
* xyz 0   1
 C  -4.68940  -1.76189  -2.48411
 C  -3.50793  -1.09237  -2.16197
 C  -2.67938  -1.78739  -1.22672
 C  -3.20927  -3.01189  -0.80824
 S  -4.65472  -3.16800  -1.60620
 H  -3.21694  -0.07387  -2.58976
 C  -1.20699  -1.43688  -0.54690
 C  -0.23463  -0.16296  0.21070
 C  1.00947  0.87054  -0.37193
 H  0.59561  1.38955  -1.31462
 H  1.88171  0.17273  -0.67670
 H  0.26247  -0.70017  1.10383
 H  -1.04054  0.56373  0.60295
 H  -1.14901  -2.14516  0.37499
 H  -0.42459  -1.80532  -1.34154
 C  1.61238  2.01716  0.64595
 C  2.66075  1.72766  1.97260
 C  4.34464  1.73353  1.83428
 H  4.64504  1.80946  0.72174
 H  4.76263  0.75151  2.28522
 H  4.77917  2.63405  2.41877
 H  2.41198  2.56060  2.73723
 H  2.35628  0.70889  2.41825
 H  0.70812  2.58393  1.09549
 H  2.20941  2.75892  -0.01941
 H  -5.44877  -1.43943  -3.14968
 H  -2.77750  -3.69692  -0.12420
*
