# ================================================================
# Orca input file made by Matty Jones
# ================================================================
! ZINDO/S 
! NOPOP
! NOMOPRINT
* xyz 0   1
 C  -2.79659  -1.83057  1.53913
 C  -1.54719  -1.21188  1.47487
 C  -0.56587  -1.78647  2.34154
 C  -1.04280  -2.86431  3.09395
 S  -2.63120  -3.04709  2.65349
 H  -1.37355  -0.22280  0.94483
 C  0.88906  -1.09527  2.30107
 C  1.46757  -0.74149  0.71037
 C  1.17163  0.70644  -0.18305
 H  1.07003  1.53118  0.62489
 H  2.15211  0.89345  -0.77286
 H  2.61635  -0.80726  0.79190
 H  1.08122  -1.59425  0.03861
 H  0.88749  -0.09897  2.89544
 H  1.67682  -1.81062  2.76819
 C  -0.06725  0.90292  -1.23644
 C  -0.00319  2.32226  -2.17851
 C  0.56979  2.25815  -3.76274
 H  -0.08011  1.52423  -4.37663
 H  1.67065  1.90600  -3.76247
 H  0.50076  3.31678  -4.22880
 H  -1.04959  2.79066  -2.20054
 H  0.74446  2.99676  -1.62721
 H  -0.09991  0.00723  -1.96351
 H  -1.07084  0.97456  -0.67495
 H  -3.66757  -1.57633  0.99107
 H  -0.50227  -3.44332  3.79835
*
