# ================================================================
# Orca input file made by Matty Jones
# ================================================================
! ZINDO/S 
! NOPOP
! NOMOPRINT
* xyz 0   1
 C  -4.11271  -1.05283  -2.03918
 C  -2.82596  -0.63453  -2.38156
 C  -1.78219  -1.39130  -1.76342
 C  -2.24708  -2.41231  -0.92872
 S  -3.90181  -2.32622  -0.99845
 H  -2.39135  -0.23141  -3.40614
 C  -0.17989  -1.19847  -1.89168
 C  0.76378  0.09833  -1.31035
 C  1.43491  -0.12116  0.25608
 H  1.55912  -1.27017  0.37356
 H  2.49889  0.34010  0.19402
 H  1.63950  0.26391  -2.03577
 H  0.09614  1.03043  -1.26708
 H  0.07496  -1.22967  -3.03569
 H  0.33583  -2.14054  -1.42366
 C  0.74185  0.42788  1.62453
 C  1.23757  1.98457  2.07879
 C  2.60165  2.07573  3.06676
 H  2.94193  1.01318  3.37038
 H  2.34492  2.68703  4.01625
 H  3.45462  2.60474  2.48915
 H  1.45565  2.57918  1.11672
 H  0.36179  2.47659  2.64469
 H  -0.40610  0.45178  1.49305
 H  0.99905  -0.28418  2.50028
 H  -5.03113  -0.64288  -2.37390
 H  -1.66394  -3.09779  -0.36866
*
