# ================================================================
# Orca input file made by Matty Jones
# ================================================================
! ZINDO/S 
! NOPOP
! NOMOPRINT
* xyz 0   1
 C  -4.53785  -1.78591  -2.20303
 C  -3.30619  -1.14657  -2.05419
 C  -2.39084  -1.83471  -1.19812
 C  -2.90229  -3.02342  -0.66831
 S  -4.43852  -3.15857  -1.27836
 H  -3.08883  0.00572  -1.90921
 C  -0.90282  -1.28691  -0.87422
 C  -0.71514  0.30046  -0.28360
 C  0.86953  0.87980  -0.02658
 H  0.76672  2.03715  -0.11526
 H  1.49414  0.52601  -0.92917
 H  -1.21510  1.01334  -1.03528
 H  -1.26315  0.35115  0.72783
 H  -0.37454  -1.97931  -0.10387
 H  -0.27233  -1.32264  -1.85800
 C  1.67038  0.59978  1.36652
 C  3.29114  1.11706  1.35093
 C  3.61955  2.68813  1.85836
 H  3.77085  3.36496  0.93133
 H  4.58704  2.68787  2.49551
 H  2.73874  3.08729  2.49177
 H  3.88885  0.39707  2.02487
 H  3.66918  1.02965  0.26466
 H  1.67419  -0.53455  1.58759
 H  1.14111  1.14643  2.23624
 H  -5.36283  -1.46218  -2.78459
 H  -2.41098  -3.69709  -0.01381
*
