# ================================================================
# Orca input file made by Matty Jones
# ================================================================
! ZINDO/S 
! NOPOP
! NOMOPRINT
* xyz 0   1
 C  1.85718  3.24126  0.83059
 C  1.21228  2.00685  0.73972
 C  1.80423  0.97872  1.53773
 C  2.92219  1.40342  2.26238
 S  3.11669  3.00612  1.88295
 H  0.10888  1.99194  0.45022
 C  1.13346  -0.47848  1.50422
 C  -0.55138  -0.34628  1.69408
 C  -1.23440  -0.09945  0.17139
 H  -2.15213  0.58890  0.29509
 H  -0.47443  0.40289  -0.54248
 H  -0.96248  -1.31150  2.15941
 H  -0.79154  0.55189  2.37188
 H  1.48032  -1.21275  2.32276
 H  1.33985  -0.98411  0.47415
 C  -1.64094  -1.49175  -0.55625
 C  -2.01704  -1.24411  -2.18179
 C  -0.65378  -1.36457  -3.16366
 H  -0.79761  -0.70106  -4.10035
 H  -0.51307  -2.46791  -3.48344
 H  0.27986  -1.01031  -2.57806
 H  -2.78287  -2.03871  -2.50745
 H  -2.46900  -0.19220  -2.30614
 H  -0.76505  -2.24240  -0.49112
 H  -2.56603  -1.94865  -0.03493
 H  1.59669  4.13965  0.33197
 H  3.52015  0.82260  2.91712
*
