# ================================================================
# Orca input file made by Matty Jones
# ================================================================
! ZINDO/S 
! NOPOP
! NOMOPRINT
* xyz 0   1
 C  2.04899  3.85710  -0.81484
 C  1.64652  2.52870  -0.66897
 C  2.35633  1.81144  0.34393
 C  3.32418  2.57734  1.00120
 S  3.25178  4.08051  0.30431
 H  0.83493  2.03973  -1.30889
 C  2.13897  0.26453  0.78227
 C  0.66137  -0.44587  1.21538
 C  -0.27004  -1.12654  -0.00245
 H  -0.57319  -0.28601  -0.73641
 H  0.38376  -1.89701  -0.56311
 H  0.89166  -1.28093  1.97872
 H  0.03126  0.37223  1.73134
 H  2.51378  -0.39698  -0.10914
 H  2.81882  0.00527  1.68589
 C  -1.60416  -1.86245  0.57442
 C  -2.55101  -2.49463  -0.66988
 C  -3.56323  -1.31924  -1.32068
 H  -4.57024  -1.80223  -1.62200
 H  -3.05513  -0.86208  -2.25533
 H  -3.75143  -0.48632  -0.53954
 H  -1.86568  -2.90618  -1.49739
 H  -3.19915  -3.34522  -0.24206
 H  -1.29538  -2.74167  1.26114
 H  -2.23921  -1.11884  1.18784
 H  1.66640  4.57235  -1.49722
 H  3.96911  2.26298  1.78149
*
