# ================================================================
# Orca input file made by Matty Jones
# ================================================================
! ZINDO/S 
! NOPOP
! NOMOPRINT
* xyz 0   1
 C  -3.30701  -2.03003  2.26246
 C  -2.11408  -1.79097  1.57862
 C  -0.94794  -2.26799  2.25452
 C  -1.22144  -2.88685  3.47825
 S  -2.86853  -2.81230  3.65706
 H  -1.90331  -0.67732  1.22596
 C  0.46770  -2.00424  1.49041
 C  0.43134  -0.42993  0.72776
 C  1.39563  0.63161  -0.23439
 H  1.84003  1.43743  0.45688
 H  2.23424  0.02585  -0.73106
 H  -0.40053  -0.64380  -0.05683
 H  0.06283  0.25865  1.57471
 H  1.34949  -1.99747  2.24011
 H  0.65499  -2.79300  0.67124
 C  0.41998  1.33135  -1.35695
 C  0.86552  2.70834  -2.24637
 C  1.57107  2.58722  -3.76980
 H  1.74640  3.65644  -4.18351
 H  0.86122  2.01334  -4.48061
 H  2.58207  2.03390  -3.68602
 H  -0.11257  3.29184  -2.40132
 H  1.58876  3.31072  -1.58269
 H  0.19330  0.52014  -2.15658
 H  -0.58000  1.60820  -0.83775
 H  -4.28676  -1.76695  1.95509
 H  -0.52239  -3.31416  4.15080
*
