# ================================================================
# Orca input file made by Matty Jones
# ================================================================
! ZINDO/S 
! NOPOP
! NOMOPRINT
* xyz 0   1
 C  1.71224  4.14701  -0.87735
 C  1.48644  2.79298  -1.12936
 C  1.89699  1.92545  -0.06960
 C  2.44976  2.59785  1.02477
 S  2.40213  4.20770  0.62913
 H  1.03922  2.39820  -2.09739
 C  1.72267  0.32482  -0.19184
 C  1.11526  -0.58230  1.10958
 C  -0.54578  -0.90887  1.30767
 H  -0.61438  -2.02453  1.61728
 H  -0.88560  -0.26684  2.21235
 H  1.63019  -1.61444  1.04826
 H  1.45927  -0.04651  2.07463
 H  2.75839  -0.13694  -0.42279
 H  1.03063  0.07532  -1.10893
 C  -1.60155  -0.65399  0.09249
 C  -1.80169  -1.98382  -0.94219
 C  -2.99649  -3.08451  -0.49544
 H  -4.01294  -2.53887  -0.41254
 H  -2.72017  -3.55613  0.52425
 H  -3.06616  -3.91395  -1.30024
 H  -0.79851  -2.54723  -0.99930
 H  -2.07314  -1.57519  -1.98538
 H  -2.64264  -0.40953  0.53578
 H  -1.25521  0.24157  -0.54900
 H  1.48963  4.96425  -1.51466
 H  2.82143  2.16850  1.91983
*
