# ================================================================
# Orca input file made by Matty Jones
# ================================================================
! ZINDO/S 
! NOPOP
! NOMOPRINT
* xyz 0   1
 C  1.36168  4.50039  -2.21039
 C  0.47240  3.47292  -1.89195
 C  0.86230  2.69372  -0.75833
 C  2.06551  3.10799  -0.17872
 S  2.57645  4.39842  -1.08656
 H  -0.48613  3.25692  -2.47537
 C  -0.10212  1.47269  -0.29740
 C  0.24432  0.09271  0.65810
 C  0.91148  -1.39120  0.17968
 H  1.60980  -1.18194  -0.71780
 H  1.55365  -1.77893  1.06253
 H  -0.85250  -0.23540  0.94303
 H  0.70661  0.40171  1.64823
 H  -0.54039  0.99387  -1.27571
 H  -1.00314  1.95817  0.27174
 C  -0.17935  -2.52972  -0.23331
 C  -0.87228  -3.39938  1.04582
 C  -2.31415  -2.73001  1.60458
 H  -2.07971  -1.82549  2.28635
 H  -2.89797  -3.52776  2.20665
 H  -2.95177  -2.38399  0.70304
 H  -1.08983  -4.46950  0.67969
 H  -0.12456  -3.43234  1.92016
 H  -1.03892  -2.03851  -0.83018
 H  0.34085  -3.30968  -0.91479
 H  1.27808  5.19868  -3.00349
 H  2.54968  2.68567  0.66439
*
