# ================================================================
# Orca input file made by Matty Jones
# ================================================================
! ZINDO/S 
! NOPOP
! NOMOPRINT
* xyz 0   1
 C  1.56771  4.06320  -3.03040
 C  0.89592  3.01212  -2.40443
 C  1.75624  2.07930  -1.74568
 C  3.11422  2.39538  -1.85202
 S  3.17809  3.79273  -2.74296
 H  -0.23839  2.88574  -2.42244
 C  1.24474  0.76005  -0.93841
 C  -0.04959  0.89257  0.17883
 C  -0.77489  -0.27157  1.23495
 H  -1.87931  -0.30206  0.86520
 H  -0.77406  0.26511  2.26688
 H  -0.93412  1.26444  -0.46759
 H  0.28095  1.74216  0.88822
 H  0.91135  -0.04198  -1.70954
 H  2.13581  0.31664  -0.32944
 C  -0.37180  -1.83059  1.53608
 C  -1.46505  -3.05190  1.08975
 C  -2.60794  -3.42309  2.27873
 H  -2.07339  -3.86880  3.20287
 H  -3.36054  -4.19425  1.85657
 H  -3.16923  -2.45777  2.58082
 H  -0.85874  -4.00936  0.88120
 H  -2.01935  -2.72499  0.13756
 H  -0.20163  -1.95113  2.67611
 H  0.62250  -2.06222  0.99170
 H  1.13884  4.86527  -3.57478
 H  3.93166  1.85501  -1.44780
*
