# ================================================================
# Orca input file made by Matty Jones
# ================================================================
! ZINDO/S 
! NOPOP
! NOMOPRINT
* xyz 0   1
 C  2.35896  3.33219  -0.94920
 C  1.85888  2.07223  -0.61703
 C  2.39888  1.52951  0.59049
 C  3.33005  2.36513  1.21497
 S  3.43477  3.71253  0.25374
 H  1.10515  1.50922  -1.26296
 C  1.96736  0.08355  1.14540
 C  0.33792  -0.42123  1.15772
 C  0.03392  -1.22878  -0.28890
 H  -0.00913  -0.41857  -1.11647
 H  0.95196  -1.90627  -0.49732
 H  0.16783  -1.13199  2.04384
 H  -0.34395  0.49828  1.24421
 H  2.19971  -0.00118  2.27999
 H  2.57300  -0.73476  0.59206
 C  -1.30396  -2.14660  -0.40769
 C  -2.64604  -1.52746  -1.21773
 C  -3.86662  -0.87236  -0.26953
 H  -3.51583  -0.79180  0.82927
 H  -4.79699  -1.56088  -0.32835
 H  -4.14231  0.17826  -0.66927
 H  -2.27485  -0.70237  -1.93465
 H  -3.10201  -2.38694  -1.83978
 H  -1.02063  -3.13759  -0.93985
 H  -1.65904  -2.41058  0.66531
 H  2.10462  3.92165  -1.79267
 H  3.85837  2.17680  2.11442
*
