# ================================================================
# Orca input file made by Matty Jones
# ================================================================
! ZINDO/S 
! NOPOP
! NOMOPRINT
* xyz 0   1
 C  1.20391  4.60499  -2.56653
 C  0.98047  3.22941  -2.64237
 C  1.27258  2.52296  -1.43412
 C  1.72898  3.34486  -0.39899
 S  1.74683  4.88077  -1.02437
 H  0.59364  2.70503  -3.57949
 C  1.08940  0.91032  -1.33784
 C  0.33106  -0.16069  -0.16834
 C  -0.55967  -0.05109  1.29328
 H  0.11670  0.34425  2.11120
 H  -1.41614  0.70130  1.10356
 H  1.22635  -0.82597  0.14715
 H  -0.37484  -0.77902  -0.84564
 H  2.17565  0.45834  -1.37783
 H  0.55190  0.57795  -2.31785
 C  -1.18334  -1.44465  1.89663
 C  -0.95002  -2.86169  1.00452
 C  -1.70870  -4.22124  1.65054
 H  -2.75313  -4.33812  1.16518
 H  -1.82444  -4.09689  2.79453
 H  -1.06956  -5.15880  1.42311
 H  0.18121  -3.07081  0.94828
 H  -1.37012  -2.69397  -0.05461
 H  -0.72471  -1.63528  2.94330
 H  -2.32705  -1.31247  2.01954
 H  1.05741  5.32218  -3.33319
 H  2.00563  3.04831  0.58036
*
