# ================================================================
# Orca input file made by Matty Jones
# ================================================================
! ZINDO/S 
! NOPOP
! NOMOPRINT
* xyz 0   1
 C  2.58058  3.24940  -1.05071
 C  2.01974  2.06192  -0.57825
 C  2.55490  1.62035  0.67190
 C  3.54330  2.46341  1.18921
 S  3.70085  3.69351  0.08808
 H  1.19167  1.49532  -1.12412
 C  2.04127  0.24993  1.35600
 C  0.38772  -0.17939  1.42020
 C  -0.10230  -1.13180  0.10963
 H  0.08226  -0.51602  -0.85112
 H  0.59690  -2.05583  0.09040
 H  0.20609  -0.77546  2.38709
 H  -0.23728  0.78442  1.42780
 H  2.29921  0.23888  2.48808
 H  2.58146  -0.64593  0.85516
 C  -1.64694  -1.65132  0.13299
 C  -2.49016  -1.30602  -1.28901
 C  -4.08134  -1.85082  -1.28834
 H  -4.14943  -2.84736  -0.70451
 H  -4.42822  -2.01623  -2.38048
 H  -4.75574  -1.05719  -0.78376
 H  -1.93637  -1.81588  -2.16209
 H  -2.49233  -0.16509  -1.44495
 H  -1.67113  -2.79692  0.28855
 H  -2.21519  -1.14740  1.00516
 H  2.34088  3.75976  -1.94831
 H  4.07959  2.34175  2.09541
*
