# ================================================================
# Orca input file made by Matty Jones
# ================================================================
! ZINDO/S 
! NOPOP
! NOMOPRINT
* xyz 0   1
 C  4.77874  0.98764  -1.57960
 C  3.62730  0.22689  -1.37137
 C  2.58573  0.92130  -0.68057
 C  2.91638  2.23701  -0.34162
 S  4.45835  2.46866  -0.90651
 H  3.57255  -0.88894  -1.60013
 C  1.26441  0.00896  -0.45907
 C  -0.36490  0.45364  -0.53719
 C  -1.04577  0.80859  0.95679
 H  -0.23636  1.26904  1.63894
 H  -1.89406  1.57479  0.80147
 H  -0.44832  1.39108  -1.20433
 H  -0.95728  -0.40913  -1.02080
 H  1.35957  -0.47447  0.60734
 H  1.31715  -0.87600  -1.22564
 C  -1.63076  -0.56352  1.62848
 C  -3.23254  -0.95941  1.24693
 C  -3.46202  -1.92763  -0.11262
 H  -4.23175  -2.75599  0.13738
 H  -2.45962  -2.41334  -0.42347
 H  -3.86547  -1.27706  -0.98074
 H  -3.81288  0.02322  1.08658
 H  -3.67447  -1.51948  2.15367
 H  -0.97359  -1.45854  1.30219
 H  -1.56920  -0.46947  2.78009
 H  5.67010  0.68286  -2.06557
 H  2.30871  2.93929  0.16939
*
