# ================================================================
# Orca input file made by Matty Jones
# ================================================================
! ZINDO/S 
! NOPOP
! NOMOPRINT
* xyz 0   1
 C  -3.31042  -2.71832  -1.03392
 C  -2.13642  -2.08279  -0.62682
 C  -1.57435  -2.61028  0.57738
 C  -2.30822  -3.66768  1.12390
 S  -3.59579  -3.89114  0.10280
 H  -1.67006  -1.20139  -1.18613
 C  -0.20505  -2.05630  1.24810
 C  0.27747  -0.42636  1.58305
 C  1.14740  0.53792  0.46909
 H  2.19728  0.68031  0.94603
 H  1.26950  -0.09380  -0.49026
 H  -0.68995  0.14407  1.83155
 H  0.93795  -0.49514  2.52634
 H  -0.10910  -2.54777  2.30280
 H  0.68223  -2.45948  0.60489
 C  0.58989  2.01823  0.06933
 C  1.18278  2.66801  -1.38993
 C  2.58401  3.60328  -1.42498
 H  3.50764  2.90949  -1.48280
 H  2.64122  4.25859  -0.47452
 H  2.55654  4.28312  -2.36372
 H  1.35566  1.77652  -2.10257
 H  0.33576  3.32943  -1.81441
 H  -0.56133  1.98381  -0.01468
 H  0.87920  2.76773  0.90281
 H  -3.89611  -2.49771  -1.88943
 H  -2.08774  -4.21236  2.00611
*
