# ================================================================
# Orca input file made by Matty Jones
# ================================================================
! ZINDO/S 
! NOPOP
! NOMOPRINT
* xyz 0   1
 C  1.06723  3.81768  -1.88469
 C  1.14966  2.68163  -1.07816
 C  1.27452  2.96445  0.31780
 C  1.29077  4.33072  0.61505
 S  1.15174  5.10600  -0.84442
 H  1.56231  1.69809  -1.52673
 C  1.34904  1.62798  1.21620
 C  -0.01226  0.67330  0.62118
 C  -0.80659  -0.84181  0.77710
 H  -1.93963  -0.62749  0.83774
 H  -0.45384  -1.32673  1.76095
 H  0.23315  0.59488  -0.50314
 H  -0.88527  1.42019  0.77466
 H  1.22161  1.82788  2.34064
 H  2.32642  1.04108  1.00499
 C  -0.51316  -1.84889  -0.47819
 C  -1.60204  -3.13739  -0.59925
 C  -1.17692  -4.48388  0.30354
 H  -1.83211  -5.38177  -0.01973
 H  -1.35201  -4.25932  1.42570
 H  -0.06106  -4.73322  0.12587
 H  -1.66106  -3.45066  -1.70789
 H  -2.63831  -2.77283  -0.25143
 H  0.55169  -2.28579  -0.38761
 H  -0.58924  -1.26152  -1.47307
 H  0.97091  3.85003  -2.93981
 H  1.37443  4.77738  1.57270
*
