# ================================================================
# Orca input file made by Matty Jones
# ================================================================
! ZINDO/S 
! NOPOP
! NOMOPRINT
* xyz 0   1
 C  2.54554  3.36926  -0.95336
 C  1.72259  2.49183  -0.24571
 C  2.39071  1.77771  0.79732
 C  3.74806  2.09285  0.91387
 S  4.04595  3.22256  -0.26317
 H  0.60422  2.37165  -0.43535
 C  1.64556  0.71478  1.75297
 C  0.43009  -0.40421  1.33212
 C  -0.33529  -0.57397  -0.16780
 H  -0.41397  0.44727  -0.68888
 H  0.26851  -1.30286  -0.82515
 H  0.88783  -1.44896  1.54629
 H  -0.40855  -0.21449  2.10680
 H  1.21594  1.29887  2.67404
 H  2.44667  -0.03063  2.14635
 C  -1.82584  -1.17025  0.14760
 C  -2.93354  -1.34489  -1.10718
 C  -3.00489  -2.88898  -1.75997
 H  -4.00537  -3.01059  -2.33050
 H  -2.95096  -3.67126  -0.90891
 H  -2.11995  -3.04223  -2.48815
 H  -2.64969  -0.60723  -1.94656
 H  -3.97928  -1.07656  -0.70081
 H  -1.69897  -2.21556  0.63263
 H  -2.33637  -0.47450  0.92414
 H  2.26954  3.99707  -1.76162
 H  4.44144  1.69332  1.60900
*
