# ================================================================
# Orca input file made by Matty Jones
# ================================================================
! ZINDO/S 
! NOPOP
! NOMOPRINT
* xyz 0   1
 C  -1.18807  -2.27400  -3.76450
 C  -0.59638  -1.90677  -2.55498
 C  -1.37610  -0.99561  -1.77647
 C  -2.58961  -0.64158  -2.37428
 S  -2.63335  -1.46298  -3.81435
 H  0.19965  -2.52239  -2.03764
 C  -0.69125  -0.56171  -0.38868
 C  0.91604  -0.09262  -0.71212
 C  1.97083  0.22109  0.55379
 H  3.03554  0.25337  0.08749
 H  1.92545  -0.70049  1.25632
 H  1.42987  -0.90543  -1.34652
 H  0.83695  0.87493  -1.34155
 H  -1.24930  0.34071  0.07811
 H  -0.68662  -1.44062  0.36409
 C  1.75208  1.57973  1.40554
 C  0.90864  1.25914  2.83698
 C  -0.76344  1.30337  2.69636
 H  -1.06897  2.09266  1.90745
 H  -1.21960  1.58394  3.72295
 H  -1.15037  0.26068  2.37741
 H  1.21008  0.21233  3.21582
 H  1.22670  2.04934  3.61411
 H  1.15044  2.35104  0.79134
 H  2.77404  2.03996  1.68807
 H  -0.79611  -2.93254  -4.49683
 H  -3.32714  0.01445  -1.98791
*
