# ================================================================
# Orca input file made by Matty Jones
# ================================================================
! ZINDO/S 
! NOPOP
! NOMOPRINT
* xyz 0   1
 C  -3.14330  -2.59059  -0.74098
 C  -2.11594  -1.83039  -0.18016
 C  -1.49391  -2.43686  0.95543
 C  -2.03282  -3.68222  1.29301
 S  -3.23368  -3.96348  0.18428
 H  -1.80598  -0.81295  -0.58922
 C  -0.30083  -1.70251  1.74554
 C  0.92558  -0.99916  0.78844
 C  0.66570  0.62326  0.35434
 H  -0.32461  0.68877  -0.23341
 H  0.54865  1.21672  1.34146
 H  1.90856  -1.04676  1.38419
 H  1.02409  -1.61351  -0.17829
 H  0.24857  -2.47583  2.42310
 H  -0.72403  -0.85914  2.43001
 C  1.84598  1.30252  -0.54357
 C  1.79144  2.99695  -0.62472
 C  0.85194  3.67403  -1.84215
 H  1.35890  4.64590  -2.21678
 H  -0.19561  3.92662  -1.41884
 H  0.74819  2.92800  -2.71962
 H  1.39902  3.38679  0.38681
 H  2.87550  3.36323  -0.77710
 H  2.87575  1.01396  -0.10424
 H  1.77878  0.90338  -1.62684
 H  -3.73997  -2.34256  -1.58125
 H  -1.73596  -4.31418  2.09057
*
