# ================================================================
# Orca input file made by Matty Jones
# ================================================================
! ZINDO/S 
! NOPOP
! NOMOPRINT
* xyz 0   1
 C  -2.27425  -3.63151  -3.00862
 C  -1.08161  -3.07594  -2.54296
 C  -1.25890  -1.93214  -1.70359
 C  -2.59830  -1.58277  -1.50545
 S  -3.48031  -2.69184  -2.36710
 H  -0.05694  -3.50767  -2.79532
 C  0.13024  -1.29371  -1.16763
 C  0.56758  0.33932  -1.20968
 C  0.10470  1.25520  0.12263
 H  -0.98445  1.01126  0.39816
 H  0.18646  2.37278  -0.16182
 H  1.71858  0.39078  -1.29286
 H  0.10098  0.80455  -2.15534
 H  0.21279  -1.57791  -0.03254
 H  1.02269  -1.83126  -1.70271
 C  1.07790  0.92736  1.38681
 C  0.73361  1.77322  2.80119
 C  1.72245  3.11049  3.03789
 H  1.37477  3.97672  2.35562
 H  2.81575  2.82621  2.78261
 H  1.65909  3.43549  4.14705
 H  -0.35851  2.14093  2.74609
 H  0.85275  1.05799  3.69628
 H  2.17442  1.15581  1.09489
 H  0.99577  -0.19964  1.64164
 H  -2.38554  -4.47611  -3.63939
 H  -2.97172  -0.77763  -0.92587
*
