# ================================================================
# Orca input file made by Matty Jones
# ================================================================
! ZINDO/S 
! NOPOP
! NOMOPRINT
* xyz 0   1
 C  1.47430  4.45305  -2.43902
 C  1.17454  3.09070  -2.48422
 C  1.47042  2.38735  -1.27509
 C  2.00653  3.19840  -0.27005
 S  2.08514  4.72164  -0.92118
 H  0.74262  2.56115  -3.41113
 C  1.16368  0.80090  -1.18253
 C  0.81415  -0.09089  0.22623
 C  -0.71927  -0.26914  0.92500
 H  -0.57494  -0.37489  2.06741
 H  -1.32216  0.69191  0.71224
 H  1.07307  -1.18430  -0.11343
 H  1.55037  0.14836  1.04932
 H  2.09214  0.24623  -1.64085
 H  0.25598  0.56752  -1.87979
 C  -1.51066  -1.56921  0.34802
 C  -1.12729  -3.05032  1.07673
 C  -2.11184  -3.53131  2.35272
 H  -1.58214  -3.30167  3.35556
 H  -2.30624  -4.67038  2.27083
 H  -3.11924  -2.96486  2.30518
 H  -0.04590  -2.97960  1.47118
 H  -1.18134  -3.86331  0.26062
 H  -2.64877  -1.40682  0.48742
 H  -1.29399  -1.67798  -0.78314
 H  1.33982  5.16575  -3.21205
 H  2.30102  2.90173  0.70404
*
