# ================================================================
# Orca input file made by Matty Jones
# ================================================================
! ZINDO/S 
! NOPOP
! NOMOPRINT
* xyz 0   1
 C  4.72531  1.16448  -1.66673
 C  3.64780  0.36379  -1.28494
 C  2.59635  1.07484  -0.62683
 C  2.84486  2.44392  -0.48825
 S  4.33152  2.69901  -1.17759
 H  3.60688  -0.75657  -1.50488
 C  1.37855  0.08027  -0.21447
 C  -0.27065  0.25487  -0.55913
 C  -1.36464  0.98009  0.48523
 H  -0.81722  1.80637  1.07576
 H  -2.21071  1.45568  -0.14057
 H  -0.31483  0.86178  -1.54672
 H  -0.66797  -0.80868  -0.77499
 H  1.39763  0.00325  0.96280
 H  1.62265  -0.99423  -0.60761
 C  -1.99151  -0.11847  1.52324
 C  -3.31737  -1.04919  1.01776
 C  -2.96877  -2.59054  0.43104
 H  -3.95766  -3.18355  0.31875
 H  -2.27698  -3.13749  1.18038
 H  -2.44656  -2.50850  -0.59665
 H  -3.85581  -0.46975  0.17951
 H  -4.02628  -1.16827  1.91887
 H  -1.15737  -0.86674  1.81809
 H  -2.33119  0.43984  2.47947
 H  5.60906  0.85651  -2.16446
 H  2.21492  3.16726  -0.03707
*
