# ================================================================
# Orca input file made by Matty Jones
# ================================================================
! ZINDO/S 
! NOPOP
! NOMOPRINT
* xyz 0   1
 C  -4.36288  -1.12699  0.79538
 C  -3.03757  -0.90755  0.41684
 C  -2.07418  -1.40144  1.35078
 C  -2.64165  -2.01395  2.47245
 S  -4.28241  -1.91363  2.25272
 H  -2.58769  0.08435  -0.04731
 C  -0.48101  -1.26142  1.15511
 C  0.04450  0.29146  0.69668
 C  1.71194  0.54162  0.57260
 H  2.19420  0.04716  1.50292
 H  1.88090  1.68593  0.64590
 H  -0.41227  0.52199  -0.33398
 H  -0.36209  1.03517  1.47718
 H  0.07839  -1.47128  2.15271
 H  -0.10353  -2.01389  0.35637
 C  2.45638  -0.01169  -0.76426
 C  2.47799  0.89291  -2.19461
 C  1.56255  2.30005  -2.25696
 H  0.57425  2.15323  -1.67591
 H  1.32244  2.54138  -3.36464
 H  2.16433  3.17231  -1.79305
 H  3.57640  1.18697  -2.39742
 H  2.11221  0.20023  -3.04324
 H  3.57126  -0.19698  -0.49348
 H  1.98438  -1.03577  -1.03783
 H  -5.23664  -0.84930  0.26338
 H  -2.13020  -2.45090  3.29165
*
