# ================================================================
# Orca input file made by Matty Jones
# ================================================================
! ZINDO/S 
! NOPOP
! NOMOPRINT
* xyz 0   1
 C  -3.94084  -0.69103  0.06341
 C  -2.55573  -0.52247  0.09399
 C  -1.92786  -1.05934  1.26096
 C  -2.82170  -1.65482  2.15637
 S  -4.32073  -1.48809  1.46678
 H  -1.97422  -0.11305  -0.79823
 C  -0.32894  -0.92127  1.36571
 C  0.14421  0.68653  1.00899
 C  1.77794  1.08813  1.02126
 H  1.83781  2.17365  1.43167
 H  2.29895  0.38845  1.78259
 H  -0.25607  0.93410  -0.03989
 H  -0.38475  1.36082  1.78251
 H  0.04429  -1.11523  2.44798
 H  0.20798  -1.63324  0.63804
 C  2.60562  1.04769  -0.38709
 C  1.79059  1.10901  -1.87196
 C  1.34646  -0.36863  -2.54175
 H  1.75102  -0.43126  -3.62553
 H  0.19185  -0.45073  -2.55572
 H  1.78878  -1.23279  -1.91374
 H  0.84924  1.76004  -1.75205
 H  2.50415  1.62477  -2.62266
 H  3.22109  0.06445  -0.40428
 H  3.34965  1.93643  -0.39272
 H  -4.60906  -0.37592  -0.69672
 H  -2.58974  -2.11620  3.08207
*
