# ================================================================
# Orca input file made by Matty Jones
# ================================================================
! ZINDO/S 
! NOPOP
! NOMOPRINT
* xyz 0   1
 C  4.81461  0.61837  -2.02137
 C  3.54732  0.08988  -1.77121
 C  2.72633  0.91138  -0.93732
 C  3.34849  2.09452  -0.52694
 S  4.86035  2.06239  -1.20786
 H  3.18502  -0.91037  -2.18332
 C  1.24619  0.34757  -0.58789
 C  -0.18441  1.26438  -0.50983
 C  -1.57020  0.31056  -0.22829
 H  -2.43339  0.82555  -0.80541
 H  -1.36787  -0.71901  -0.71685
 H  -0.31002  1.85682  -1.48200
 H  -0.14830  1.95137  0.39914
 H  1.30091  -0.17473  0.46209
 H  0.99003  -0.48616  -1.36881
 C  -2.04799  0.07246  1.30975
 C  -3.38621  -0.95908  1.44753
 C  -2.95782  -2.57492  1.63838
 H  -2.40015  -2.93884  0.69215
 H  -3.91311  -3.20899  1.79528
 H  -2.26742  -2.67919  2.56142
 H  -4.02329  -0.86191  0.49287
 H  -4.00569  -0.63416  2.36179
 H  -1.18212  -0.38407  1.92302
 H  -2.34605  1.08563  1.78132
 H  5.58533  0.18744  -2.60778
 H  2.93944  2.85312  0.09016
*
