# ================================================================
# Orca input file made by Matty Jones
# ================================================================
! ZINDO/S 
! NOPOP
! NOMOPRINT
* xyz 0   1
 C  -2.62339  -3.39583  -1.26126
 C  -1.75510  -2.40053  -0.81034
 C  -2.37943  -1.40763  0.00732
 C  -3.74761  -1.61995  0.20303
 S  -4.10778  -3.00552  -0.63411
 H  -0.64094  -2.37620  -1.05554
 C  -1.58292  -0.16591  0.64136
 C  -0.54498  0.63561  -0.42328
 C  0.24030  1.96380  0.26176
 H  0.28833  1.79759  1.40448
 H  -0.41477  2.89596  0.05534
 H  0.25219  -0.11650  -0.77813
 H  -1.16246  1.00223  -1.32347
 H  -2.31912  0.64539  1.03044
 H  -0.94140  -0.52684  1.54436
 C  1.73598  2.21516  -0.33029
 C  2.94204  1.56220  0.66201
 C  3.25715  -0.07014  0.41367
 H  2.47205  -0.69855  0.98739
 H  4.31611  -0.31835  0.80981
 H  3.19785  -0.31089  -0.71607
 H  3.91504  2.14673  0.45724
 H  2.63266  1.71145  1.76173
 H  1.93285  3.35031  -0.42439
 H  1.83645  1.73337  -1.37599
 H  -2.38428  -4.22619  -1.87521
 H  -4.41484  -1.02076  0.76815
*
