# ================================================================
# Orca input file made by Matty Jones
# ================================================================
! ZINDO/S 
! NOPOP
! NOMOPRINT
* xyz 0   1
 C  -2.18512  -4.21897  0.22381
 C  -1.48237  -3.03050  0.42767
 C  -2.17265  -2.07561  1.23758
 C  -3.42681  -2.51228  1.67546
 S  -3.61300  -4.03543  1.04635
 H  -0.44639  -2.81070  0.00053
 C  -1.54676  -0.63136  1.60594
 C  -0.92516  0.48351  0.47100
 C  0.66696  0.53043  -0.13164
 H  1.39588  0.42566  0.75495
 H  0.80705  -0.35675  -0.85400
 H  -1.60029  0.37212  -0.46069
 H  -1.10558  1.52446  0.94129
 H  -2.34439  -0.00414  2.17775
 H  -0.65763  -0.80666  2.34592
 C  0.92495  1.94185  -0.91877
 C  2.32189  2.12117  -1.85727
 C  3.70015  2.70988  -1.09392
 H  4.63448  2.36604  -1.68600
 H  3.75124  2.29647  -0.01514
 H  3.66486  3.86644  -1.06924
 H  2.57439  1.09370  -2.31334
 H  2.06300  2.86142  -2.70643
 H  0.02627  2.14304  -1.61989
 H  0.96157  2.78856  -0.12600
 H  -1.87203  -5.06133  -0.33834
 H  -4.11452  -1.98101  2.28242
*
