# ================================================================
# Orca input file made by Matty Jones
# ================================================================
! ZINDO/S 
! NOPOP
! NOMOPRINT
* xyz 0   1
 C  4.88853  0.03924  -1.54790
 C  3.51390  -0.10461  -1.74178
 C  2.71512  0.73436  -0.90372
 C  3.46278  1.54477  -0.04375
 S  5.05048  1.18568  -0.36109
 H  3.06036  -0.82363  -2.50443
 C  1.10879  0.63520  -1.06779
 C  0.02123  0.56306  0.22982
 C  -1.60516  0.46717  -0.25381
 H  -2.20776  1.16835  0.43973
 H  -1.65500  0.90568  -1.32697
 H  0.06690  1.47020  0.90603
 H  0.27372  -0.38798  0.83327
 H  0.86041  -0.31813  -1.70001
 H  0.75933  1.55597  -1.69866
 C  -2.27726  -1.01375  -0.27565
 C  -3.08543  -1.49499  1.13566
 C  -3.10464  -0.39727  2.41163
 H  -3.60440  -0.89481  3.32982
 H  -3.70923  0.54061  2.10683
 H  -2.01914  -0.09770  2.67671
 H  -2.58674  -2.46398  1.51210
 H  -4.18129  -1.71493  0.84970
 H  -3.04944  -1.06398  -1.13712
 H  -1.45360  -1.80122  -0.47871
 H  5.66523  -0.47583  -2.05291
 H  3.09233  2.24252  0.66301
*
