# ================================================================
# Orca input file made by Matty Jones
# ================================================================
! ZINDO/S 
! NOPOP
! NOMOPRINT
* xyz 0   1
 C  3.86514  2.00423  -1.52230
 C  3.00154  1.38443  -0.61790
 C  2.22830  2.29444  0.16839
 C  2.48263  3.63959  -0.11656
 S  3.63460  3.63233  -1.30959
 H  3.35499  0.41429  -0.09432
 C  1.16220  1.73916  1.25894
 C  0.09150  0.54280  0.62175
 C  -1.17282  -0.34028  1.36277
 H  -0.67692  -1.12405  2.05212
 H  -1.76882  0.40623  2.01173
 H  0.83805  -0.31707  0.46489
 H  -0.31347  0.95535  -0.36779
 H  0.49350  2.59753  1.65653
 H  1.71990  1.25436  2.15375
 C  -2.20821  -1.11307  0.34916
 C  -1.83694  -2.58674  -0.41200
 C  -3.11701  -3.38437  -1.17957
 H  -4.12131  -3.01235  -0.74558
 H  -3.01165  -4.52314  -1.00193
 H  -3.07792  -3.16835  -2.31622
 H  -1.17244  -2.32784  -1.31222
 H  -1.31044  -3.28718  0.32410
 H  -2.46651  -0.37901  -0.51040
 H  -3.17964  -1.32127  0.94877
 H  4.52854  1.53339  -2.20187
 H  2.03322  4.48659  0.33535
*
