# ================================================================
# Orca input file made by Matty Jones
# ================================================================
! ZINDO/S 
! NOPOP
! NOMOPRINT
* xyz 0   1
 C  -1.91198  -3.24098  -2.43732
 C  -1.29990  -2.51222  -1.41645
 C  -2.14221  -1.52324  -0.81921
 C  -3.42588  -1.47081  -1.37127
 S  -3.45079  -2.63448  -2.55266
 H  -0.21668  -2.66857  -1.08875
 C  -1.70530  -0.51807  0.36835
 C  -0.51699  0.59571  -0.07516
 C  -0.06312  1.75959  1.06498
 H  -0.94502  1.85764  1.81200
 H  0.04433  2.76788  0.50565
 H  0.42198  0.00354  -0.38070
 H  -0.92204  1.16712  -0.99451
 H  -2.59576  0.03260  0.86491
 H  -1.21645  -1.15650  1.22233
 C  1.29315  1.44352  1.89835
 C  2.66327  1.89052  1.00950
 C  3.18763  0.63918  0.01249
 H  4.34228  0.57709  0.05421
 H  2.84835  0.84918  -1.07414
 H  2.73543  -0.36440  0.37031
 H  2.40965  2.80261  0.35427
 H  3.50701  2.16267  1.74285
 H  1.35965  0.32265  2.16137
 H  1.30016  2.05905  2.87828
 H  -1.48343  -4.01830  -3.01674
 H  -4.21734  -0.82295  -1.09294
*
