# ================================================================
# Orca input file made by Matty Jones
# ================================================================
! ZINDO/S 
! NOPOP
! NOMOPRINT
* xyz 0   1
 C  4.32673  0.28006  -1.33606
 C  3.01244  0.57990  -0.97463
 C  2.84027  0.86744  0.41532
 C  4.02459  0.79428  1.15516
 S  5.20580  0.38346  0.06595
 H  2.14713  0.62793  -1.71861
 C  1.49727  1.25997  1.25323
 C  -0.03965  0.52980  1.57858
 C  -1.61098  0.41742  0.90916
 H  -2.35816  0.63400  1.76731
 H  -1.70486  1.25619  0.12101
 H  0.26479  -0.57929  1.72712
 H  -0.27608  0.97646  2.62917
 H  1.85685  1.49963  2.34585
 H  1.14499  2.28554  0.79987
 C  -1.96646  -1.02276  0.24150
 C  -2.34661  -1.09751  -1.39792
 C  -3.99439  -1.31050  -1.68036
 H  -4.57907  -0.38509  -1.30923
 H  -4.35582  -2.25323  -1.11275
 H  -4.16806  -1.45629  -2.81516
 H  -2.02502  -0.10779  -1.89351
 H  -1.77162  -1.97402  -1.87288
 H  -1.07466  -1.74637  0.39848
 H  -2.87904  -1.46217  0.81186
 H  4.68696  0.03740  -2.30299
 H  4.14266  0.96554  2.19455
*
