# ================================================================
# Orca input file made by Matty Jones
# ================================================================
! ZINDO/S 
! NOPOP
! NOMOPRINT
* xyz 0   1
 C  -1.93394  -3.42570  -2.39396
 C  -1.33627  -2.73084  -1.34141
 C  -2.17293  -1.73311  -0.75082
 C  -3.43763  -1.63966  -1.33999
 S  -3.45388  -2.78037  -2.54371
 H  -0.27197  -2.91952  -0.98586
 C  -1.74921  -0.76742  0.47581
 C  -0.42436  0.24568  0.18797
 C  -0.01506  1.34309  1.41485
 H  -0.98068  1.88665  1.74277
 H  0.40123  0.74345  2.30925
 H  0.49487  -0.41843  -0.00765
 H  -0.66952  0.85938  -0.75659
 H  -2.63093  -0.11244  0.85121
 H  -1.42748  -1.44255  1.38450
 C  1.08441  2.43454  0.90528
 C  2.68833  1.99056  1.17164
 C  3.29649  0.96969  -0.01782
 H  2.52887  0.86256  -0.87681
 H  3.49937  -0.07053  0.44934
 H  4.28405  1.40614  -0.43370
 H  3.32567  2.95194  1.18000
 H  2.76786  1.46927  2.19482
 H  0.90837  3.43688  1.45828
 H  0.95243  2.62120  -0.22916
 H  -1.50632  -4.20226  -2.97508
 H  -4.22177  -0.97821  -1.07313
*
