# ================================================================
# Orca input file made by Matty Jones
# ================================================================
! ZINDO/S 
! NOPOP
! NOMOPRINT
* xyz 0   1
 C  4.20810  -0.36787  -1.60093
 C  2.98223  -0.88403  -2.02366
 C  1.85244  -0.34596  -1.33204
 C  2.18791  0.59984  -0.35827
 S  3.84145  0.71891  -0.40362
 H  2.63224  -1.10542  -3.15024
 C  0.34808  -0.82805  -1.71102
 C  -0.89189  -1.24462  -0.59214
 C  -0.69642  -1.31029  1.08980
 H  -1.56499  -1.93628  1.52629
 H  0.30371  -1.83610  1.32199
 H  -1.76089  -0.51550  -0.80077
 H  -1.22666  -2.31213  -0.89231
 H  0.45446  -1.78851  -2.36885
 H  -0.13359  0.00380  -2.37916
 C  -0.72377  0.18348  1.72627
 C  -2.17707  0.94336  2.09836
 C  -2.65862  2.03237  0.89941
 H  -3.81193  2.03495  0.81215
 H  -2.20086  1.72042  -0.11701
 H  -2.29338  3.09726  1.16507
 H  -2.95209  0.09917  2.17954
 H  -2.05725  1.46722  3.11147
 H  -0.03254  0.24524  2.64570
 H  -0.32353  0.81691  0.84585
 H  5.17059  -0.61791  -1.96794
 H  1.52428  1.12976  0.27607
*
