# ================================================================
# Orca input file made by Matty Jones
# ================================================================
! ZINDO/S 
! NOPOP
! NOMOPRINT
* xyz 0   1
 C  4.81842  -0.29590  0.29622
 C  3.69024  -1.01284  0.69760
 C  2.61146  -0.19465  1.15702
 C  2.88921  1.17527  1.11821
 S  4.43319  1.30033  0.52584
 H  3.20834  -2.02547  0.32031
 C  1.15695  -0.67744  1.67014
 C  0.13373  -1.26496  0.45288
 C  -0.63094  0.08002  -0.28984
 H  0.11728  0.96031  -0.16743
 H  -0.66582  -0.18985  -1.41806
 H  0.74093  -1.83602  -0.33245
 H  -0.67361  -1.93449  0.91689
 H  0.58145  0.11302  2.27480
 H  1.31161  -1.58707  2.39515
 C  -2.10235  0.64689  0.12743
 C  -3.34167  0.03973  -0.85458
 C  -3.55778  0.91424  -2.28066
 H  -3.77664  2.02121  -2.02822
 H  -4.44601  0.46445  -2.87062
 H  -2.59456  0.84285  -2.91839
 H  -4.32622  0.08040  -0.25823
 H  -3.09528  -1.05104  -1.12548
 H  -2.34036  0.35221  1.21899
 H  -2.11831  1.79992  0.04230
 H  5.72944  -0.68899  -0.07677
 H  2.24730  1.96786  1.40694
*
