# ================================================================
# Orca input file made by Matty Jones
# ================================================================
! ZINDO/S 
! NOPOP
! NOMOPRINT
* xyz 0   1
 C  3.86563  -0.92498  -2.41446
 C  2.66413  -1.52712  -2.03800
 C  1.86311  -0.73284  -1.15951
 C  2.43499  0.50273  -0.84068
 S  3.88127  0.54679  -1.65109
 H  2.36815  -2.58248  -2.36476
 C  0.48115  -1.50987  -0.76205
 C  -1.09960  -1.04529  -0.34433
 C  -1.30584  -0.95156  1.33047
 H  -2.43398  -1.04046  1.56582
 H  -0.74932  -1.82512  1.83959
 H  -1.32592  -0.02942  -0.82825
 H  -1.83139  -1.83875  -0.74767
 H  0.25264  -2.23965  -1.65914
 H  0.77710  -2.20326  0.14233
 C  -0.71912  0.47209  1.80854
 C  -1.87469  1.68409  1.84878
 C  -2.32526  2.46413  0.43064
 H  -1.58057  2.20537  -0.41435
 H  -2.31734  3.60922  0.60954
 H  -3.39231  2.12892  0.13460
 H  -2.75373  1.28054  2.44486
 H  -1.35961  2.49146  2.45258
 H  -0.23478  0.38840  2.85463
 H  0.07521  0.74752  1.02806
 H  4.61100  -1.32436  -3.05362
 H  2.02909  1.25390  -0.21253
*
