# ================================================================
# Orca input file made by Matty Jones
# ================================================================
! ZINDO/S 
! NOPOP
! NOMOPRINT
* xyz 0   1
 C  -2.05930  -4.52167  -0.07920
 C  -1.21822  -3.42689  0.12562
 C  -1.84315  -2.32715  0.79216
 C  -3.18447  -2.55468  1.11530
 S  -3.52187  -4.08307  0.56701
 H  -0.12643  -3.37723  -0.20156
 C  -0.83841  -1.07220  1.01603
 C  -1.08428  0.49608  0.43132
 C  0.29409  1.43632  0.80331
 H  -0.02704  2.54542  0.75846
 H  0.61070  1.18275  1.88338
 H  -1.21979  0.46149  -0.70764
 H  -2.00297  0.95955  0.93703
 H  -0.73615  -0.92876  2.17464
 H  0.22933  -1.36407  0.63534
 C  1.56460  1.20558  -0.20432
 C  1.78916  2.20011  -1.55716
 C  2.82269  3.50673  -1.30836
 H  2.29402  4.29237  -0.64489
 H  3.09269  3.97820  -2.33119
 H  3.78844  3.14078  -0.78641
 H  2.23274  1.55457  -2.40306
 H  0.76163  2.60746  -1.88009
 H  2.53629  1.29381  0.42354
 H  1.50725  0.12396  -0.61801
 H  -1.81464  -5.43991  -0.54885
 H  -3.84691  -1.88955  1.60761
*
