# ================================================================
# Orca input file made by Matty Jones
# ================================================================
! ZINDO/S 
! NOPOP
! NOMOPRINT
* xyz 0   1
 C  -1.91157  -4.11563  -1.69027
 C  -1.17792  -3.15797  -0.98845
 C  -1.98128  -2.20685  -0.28540
 C  -3.35621  -2.41454  -0.43282
 S  -3.50350  -3.74531  -1.41149
 H  -0.03594  -3.14847  -0.93401
 C  -1.28802  -1.03256  0.59675
 C  0.04847  -0.05280  0.19588
 C  0.35351  0.99613  1.50907
 H  0.46482  0.32473  2.44639
 H  -0.60729  1.63262  1.63347
 H  0.96174  -0.72650  0.03398
 H  -0.18790  0.56204  -0.74047
 H  -2.08644  -0.18053  0.71883
 H  -1.01876  -1.47105  1.64247
 C  1.62578  2.01016  1.44580
 C  2.49400  2.02403  0.00042
 C  1.89739  3.15010  -1.09701
 H  1.28139  3.95541  -0.53923
 H  1.22213  2.61201  -1.86751
 H  2.78478  3.65486  -1.64288
 H  3.58944  2.29389  0.24064
 H  2.45957  0.98017  -0.48205
 H  2.37635  1.71772  2.28091
 H  1.26690  3.09159  1.65262
 H  -1.53123  -4.91182  -2.27765
 H  -4.14020  -1.84141  -0.00799
*
