# ================================================================
# Orca input file made by Matty Jones
# ================================================================
! ZINDO/S 
! NOPOP
! NOMOPRINT
* xyz 0   1
 C  3.73973  1.82625  -1.35102
 C  2.75563  1.23101  -0.56036
 C  2.11665  2.12867  0.35077
 C  2.59863  3.43936  0.27922
 S  3.77348  3.41889  -0.89114
 H  2.56668  0.10773  -0.52887
 C  0.94228  1.66908  1.35792
 C  -0.55057  1.22711  0.69424
 C  -0.84852  -0.28109  0.00478
 H  0.14802  -0.52945  -0.52464
 H  -1.64167  -0.06278  -0.82294
 H  -0.78959  2.02033  -0.11195
 H  -1.31769  1.33794  1.55676
 H  0.71988  2.51397  2.12675
 H  1.31111  0.74404  1.96738
 C  -1.34822  -1.63268  0.76025
 C  -1.64253  -2.85331  -0.38956
 C  -3.22173  -2.98309  -0.95895
 H  -3.41479  -4.07427  -1.29506
 H  -3.36669  -2.27150  -1.86021
 H  -3.96152  -2.69972  -0.11698
 H  -1.30832  -3.86197  0.04624
 H  -1.02943  -2.59326  -1.32601
 H  -2.31962  -1.43955  1.34921
 H  -0.53019  -2.01220  1.48104
 H  4.33916  1.35874  -2.08974
 H  2.27983  4.27174  0.85290
*
