# ================================================================
# Orca input file made by Matty Jones
# ================================================================
! ZINDO/S 
! NOPOP
! NOMOPRINT
* xyz 0   1
 C  -2.50868  -3.53196  -1.58405
 C  -1.62287  -2.55145  -1.13481
 C  -2.20910  -1.59880  -0.24428
 C  -3.56465  -1.82822  0.01094
 S  -3.96097  -3.17868  -0.86630
 H  -0.52183  -2.51111  -1.42045
 C  -1.36224  -0.36105  0.36730
 C  -0.43149  0.55235  -0.69529
 C  0.25089  1.82127  0.18756
 H  0.30449  1.51968  1.29993
 H  -0.49577  2.70805  0.10347
 H  0.39028  -0.10160  -1.16127
 H  -1.11468  0.98122  -1.51568
 H  -1.94193  0.44077  0.95417
 H  -0.60960  -0.82585  1.13359
 C  1.69189  2.30743  -0.37181
 C  3.00725  1.54914  0.37796
 C  2.64930  0.51674  1.66208
 H  2.16867  1.12286  2.52231
 H  3.63000  0.02949  2.03946
 H  1.92235  -0.30894  1.30605
 H  3.55596  0.92785  -0.42323
 H  3.70913  2.37347  0.77371
 H  1.80224  3.44709  -0.20454
 H  1.76378  2.09200  -1.50660
 H  -2.29752  -4.33349  -2.24478
 H  -4.20488  -1.25829  0.63455
*
