# ================================================================
# Orca input file made by Matty Jones
# ================================================================
! ZINDO/S 
! NOPOP
! NOMOPRINT
* xyz 0   1
 C  4.80812  -0.30123  0.16287
 C  3.70463  -0.98164  0.67984
 C  2.68259  -0.12720  1.19910
 C  2.98055  1.23478  1.09161
 S  4.47188  1.30911  0.36992
 H  3.17813  -1.99423  0.37494
 C  1.26488  -0.56256  1.84688
 C  0.13225  -1.13589  0.71898
 C  -0.67809  0.22931  0.07036
 H  -1.35351  0.64153  0.91461
 H  0.13592  1.01602  -0.16727
 H  0.66401  -1.70114  -0.12255
 H  -0.63508  -1.80490  1.24651
 H  0.77072  0.28260  2.46018
 H  1.44791  -1.44832  2.58708
 C  -1.58365  -0.01050  -1.26340
 C  -3.26222  -0.19005  -1.16718
 C  -4.12193  1.21614  -1.52539
 H  -3.68529  2.10239  -0.92477
 H  -5.23460  1.06371  -1.24698
 H  -4.03448  1.43341  -2.65963
 H  -3.53443  -0.51500  -0.09680
 H  -3.58201  -1.00711  -1.91394
 H  -1.40302  0.89028  -1.97512
 H  -1.19022  -0.96404  -1.79480
 H  5.67778  -0.72467  -0.27070
 H  2.37915  2.04921  1.40566
*
