# ================================================================
# Orca input file made by Matty Jones
# ================================================================
! ZINDO/S 
! NOPOP
! NOMOPRINT
* xyz 0   1
 C  -2.03131  -3.86148  -1.23255
 C  -1.38404  -2.75427  -0.68207
 C  -2.25360  -1.85278  0.00747
 C  -3.59426  -2.25015  0.00143
 S  -3.63266  -3.67592  -0.84483
 H  -0.25404  -2.59635  -0.72733
 C  -1.75682  -0.50433  0.74863
 C  -0.55887  0.48714  0.07990
 C  0.94220  0.02882  0.72341
 H  1.00755  -1.12453  0.66570
 H  0.92194  0.33580  1.84203
 H  -0.53937  0.34895  -1.05938
 H  -0.76949  1.58340  0.34993
 H  -2.67530  0.20951  0.88777
 H  -1.35944  -0.77823  1.80894
 C  2.26096  0.67774  0.03104
 C  2.68024  2.25142  0.47543
 C  2.00366  3.40326  -0.55023
 H  1.50316  2.88156  -1.45406
 H  2.83696  4.11186  -0.92973
 H  1.20956  4.01264  0.03024
 H  2.31595  2.44887  1.54919
 H  3.82748  2.34937  0.43149
 H  2.13338  0.65558  -1.11865
 H  3.17227  0.01176  0.30386
 H  -1.59182  -4.65392  -1.78254
 H  -4.41431  -1.74571  0.44489
*
