# ================================================================
# Orca input file made by Matty Jones
# ================================================================
! ZINDO/S 
! NOPOP
! NOMOPRINT
* xyz 0   1
 C  4.35770  0.48624  -1.33412
 C  3.01433  0.67848  -1.00809
 C  2.78720  0.99850  0.36678
 C  3.95713  1.05927  1.13024
 S  5.19361  0.71864  0.07881
 H  2.16455  0.58997  -1.76543
 C  1.42581  1.30868  1.21871
 C  -0.08464  0.54574  1.61635
 C  -1.67534  0.44360  1.01529
 H  -2.35266  0.74331  1.91494
 H  -1.75330  1.29248  0.22776
 H  0.23491  -0.56912  1.67727
 H  -0.25754  0.93051  2.69957
 H  1.00119  2.30159  0.72817
 H  1.78564  1.61519  2.29338
 C  -2.32831  -0.89887  0.37113
 C  -2.32324  -0.97475  -1.30659
 C  -3.53349  -1.99733  -1.87725
 H  -3.51190  -2.99470  -1.29293
 H  -3.36865  -2.19486  -3.00463
 H  -4.55945  -1.48063  -1.72276
 H  -2.49008  0.07925  -1.73659
 H  -1.30355  -1.38321  -1.65334
 H  -1.74788  -1.82496  0.75930
 H  -3.42800  -0.99338  0.72413
 H  4.75896  0.24296  -2.28459
 H  4.03698  1.27739  2.16448
*
