# ================================================================
# Orca input file made by Matty Jones
# ================================================================
! ZINDO/S 
! NOPOP
! NOMOPRINT
* xyz 0   1
 C  5.07778  0.31890  -1.85509
 C  3.80079  -0.20703  -1.65364
 C  2.95884  0.60340  -0.82988
 C  3.57411  1.77518  -0.37857
 S  5.10590  1.74725  -1.01358
 H  3.44122  -1.18789  -2.11670
 C  1.47714  0.02808  -0.52935
 C  0.06050  0.97082  -0.49868
 C  -1.30482  -0.02016  -0.26958
 H  -2.19117  0.51796  -0.78407
 H  -1.10630  -1.01291  -0.83040
 H  -0.04196  1.53181  -1.49410
 H  0.06753  1.69576  0.37975
 H  1.48769  -0.50296  0.51585
 H  1.24346  -0.79079  -1.32792
 C  -1.71335  -0.34578  1.27052
 C  -3.04560  -1.38379  1.39310
 C  -4.53030  -0.59503  1.42484
 H  -5.33666  -1.31942  1.83066
 H  -4.81064  -0.26452  0.35179
 H  -4.45943  0.33237  2.11281
 H  -2.93729  -1.99200  2.36596
 H  -3.03464  -2.09875  0.48958
 H  -0.82483  -0.85445  1.80836
 H  -1.97207  0.63486  1.82414
 H  5.86390  -0.10535  -2.42573
 H  3.15021  2.52443  0.23992
*
