# ================================================================
# Orca input file made by Matty Jones
# ================================================================
! ZINDO/S 
! NOPOP
! NOMOPRINT
* xyz 0   1
 C  3.58794  2.02570  -1.53352
 C  2.71555  1.40654  -0.63716
 C  2.01377  2.31428  0.21593
 C  2.33364  3.65700  -0.00793
 S  3.45217  3.65049  -1.23237
 H  3.10303  0.44655  -0.09285
 C  0.95411  1.74665  1.30237
 C  -0.19078  0.73475  0.50449
 C  -1.53456  -0.22510  0.95367
 H  -1.82377  0.09245  2.02734
 H  -2.40035  0.04916  0.23824
 H  0.51303  -0.03998  0.04588
 H  -0.62273  1.43165  -0.31188
 H  0.36459  2.60755  1.80713
 H  1.48933  1.11754  2.11672
 C  -1.31001  -1.84341  0.92127
 C  -1.49916  -2.56311  -0.61399
 C  -2.99395  -3.15251  -1.11155
 H  -2.84871  -4.19308  -1.59913
 H  -3.44795  -2.42629  -1.89122
 H  -3.70160  -3.24282  -0.20281
 H  -0.75685  -3.44458  -0.66472
 H  -1.21849  -1.76286  -1.39462
 H  -2.07971  -2.34883  1.62001
 H  -0.24834  -2.09600  1.29659
 H  4.20682  1.55620  -2.25475
 H  1.94298  4.50207  0.49886
*
