# ================================================================
# Orca input file made by Matty Jones
# ================================================================
! ZINDO/S 
! NOPOP
! NOMOPRINT
* xyz 0   1
 C  -2.54027  -3.29202  -1.70527
 C  -1.66168  -2.35458  -1.16013
 C  -2.29070  -1.38589  -0.31740
 C  -3.67295  -1.55928  -0.19648
 S  -4.03894  -2.88338  -1.12555
 H  -0.53893  -2.35256  -1.35375
 C  -1.50065  -0.18503  0.40806
 C  -0.48591  0.74404  -0.56286
 C  0.17107  2.04300  0.29519
 H  -0.69643  2.53187  0.88967
 H  0.53829  2.81068  -0.49194
 H  0.35961  0.08108  -0.96432
 H  -1.10587  1.16218  -1.43921
 H  -2.15773  0.56114  0.99460
 H  -0.79420  -0.67501  1.21681
 C  1.38724  1.70933  1.31795
 C  2.91544  1.60475  0.61802
 C  3.30891  0.02198  0.20529
 H  4.33053  0.01356  -0.33759
 H  2.49711  -0.41674  -0.49040
 H  3.37665  -0.61346  1.17085
 H  2.93749  2.25057  -0.33503
 H  3.69459  1.99592  1.37048
 H  1.17377  0.70669  1.85556
 H  1.43958  2.54509  2.12039
 H  -2.30008  -4.09576  -2.35327
 H  -4.34594  -0.96817  0.37033
*
