# ================================================================
# Orca input file made by Matty Jones
# ================================================================
! ZINDO/S 
! NOPOP
! NOMOPRINT
* xyz 0   1
 C  -1.91904  -3.19154  -2.70198
 C  -1.33777  -2.54159  -1.61221
 C  -2.16248  -1.53046  -1.02763
 C  -3.40121  -1.38124  -1.65897
 S  -3.41075  -2.49257  -2.88994
 H  -0.29606  -2.78467  -1.21334
 C  -1.76685  -0.59312  0.23735
 C  -0.49359  0.50415  -0.00605
 C  -0.07312  1.59809  1.22546
 H  -0.95965  1.60509  1.97321
 H  -0.01265  2.64567  0.73547
 H  0.44632  -0.11407  -0.25136
 H  -0.78382  1.14074  -0.92349
 H  -2.67458  -0.01192  0.66550
 H  -1.39082  -1.29066  1.10159
 C  1.29444  1.30921  2.05369
 C  2.63975  1.95315  1.24638
 C  3.26724  0.86898  0.12379
 H  2.72425  1.01208  -0.88855
 H  3.10560  -0.21397  0.49910
 H  4.39901  1.06692  -0.01072
 H  2.32907  2.91616  0.69786
 H  3.45344  2.19850  2.02293
 H  1.45273  0.17667  2.20141
 H  1.23919  1.81903  3.09089
 H  -1.49605  -3.96825  -3.28627
 H  -4.17262  -0.70037  -1.40414
*
