# ================================================================
# Orca input file made by Matty Jones
# ================================================================
! ZINDO/S 
! NOPOP
! NOMOPRINT
* xyz 0   1
 C  -2.14875  -3.70057  1.48333
 C  -2.05683  -2.47834  0.81581
 C  -2.48307  -1.35572  1.59189
 C  -2.91374  -1.69320  2.87873
 S  -2.74684  -3.33966  2.98704
 H  -2.11870  -2.45105  -0.34005
 C  -2.36262  0.07369  0.83863
 C  -0.88829  0.03071  -0.09052
 C  -0.01263  1.07483  -1.12269
 H  -0.64399  2.02934  -1.26693
 H  0.08531  0.53590  -2.14286
 H  -0.11204  -0.31582  0.69252
 H  -1.09073  -0.82829  -0.83945
 H  -3.24787  0.23968  0.11414
 H  -2.29117  0.94700  1.59052
 C  1.47492  1.46445  -0.58302
 C  2.62728  1.59541  -1.82129
 C  4.19460  1.86401  -1.27017
 H  4.15970  2.42270  -0.25783
 H  4.77159  2.49980  -2.04595
 H  4.72746  0.84515  -1.13206
 H  2.62131  0.61418  -2.42489
 H  2.32483  2.47224  -2.50348
 H  1.86070  0.66231  0.15172
 H  1.43212  2.48357  -0.03934
 H  -1.89064  -4.65774  1.10810
 H  -3.27191  -1.03458  3.62809
*
