# ================================================================
# Orca input file made by Matty Jones
# ================================================================
! ZINDO/S 
! NOPOP
! NOMOPRINT
* xyz 0   1
 C  -16.39033  -6.62440  -2.27095
 C  -15.19139  -5.92817  -2.11065
 C  -14.36829  -6.41944  -1.04978
 C  -14.92008  -7.50908  -0.36896
 S  -16.37682  -7.80321  -1.10505
 H  -15.00056  -4.94018  -2.64750
 C  -12.96582  -5.65234  -0.83415
 C  -12.24109  -5.29372  -2.34431
 C  -10.81028  -4.42000  -2.53749
 H  -10.66036  -3.82776  -1.55016
 H  -11.01344  -3.65222  -3.38476
 H  -12.06196  -6.32089  -2.84283
 H  -13.00890  -4.70297  -2.97064
 H  -13.13418  -4.65390  -0.27287
 H  -12.22193  -6.30747  -0.23218
 C  -9.42746  -5.19903  -2.87975
 C  -8.16531  -4.10487  -3.16777
 C  -7.33771  -3.69169  -1.76642
 H  -6.72397  -2.72853  -1.95195
 H  -6.62623  -4.55710  -1.47659
 H  -8.09648  -3.50963  -0.91137
 H  -7.42713  -4.58600  -3.90890
 H  -8.60397  -3.14506  -3.63120
 H  -9.56306  -5.83565  -3.83515
 H  -9.12402  -5.88925  -2.00656
 C  15.18447  7.27673  0.48863
 C  14.31208  6.65757  1.38499
 C  13.61030  7.56531  2.23809
 C  13.93016  8.90803  2.01422
 S  15.04870  8.90153  0.78978
 H  14.69956  5.69758  1.92931
 C  12.55064  6.99768  3.32452
 C  11.40575  5.98578  2.52665
 C  10.06197  5.02594  2.97583
 H  9.77276  5.34349  4.04949
 H  9.19618  5.30019  2.26039
 H  12.10955  5.21105  2.06803
 H  10.97380  6.68268  1.71027
 H  11.96112  7.85858  3.82928
 H  13.08586  6.36857  4.13887
 C  10.28652  3.40763  2.94342
 C  10.09736  2.68792  1.40817
 C  8.60258  2.09852  0.91060
 H  8.74782  1.05795  0.42303
 H  8.14858  2.82474  0.13094
 H  7.89493  2.00822  1.81934
 H  10.83968  1.80646  1.35743
 H  10.37804  3.48818  0.62754
 H  9.51682  2.90220  3.64217
 H  11.34819  3.15504  3.31875
 H  -17.14948  -6.43872  -2.98707
 H  -14.49606  -8.03664  0.44682
 H  15.80335  6.80723  -0.23260
 H  13.53951  9.75310  2.52102
*
