# ================================================================
# Orca input file made by Matty Jones
# ================================================================
! ZINDO/S 
! NOPOP
! NOMOPRINT
* xyz 0   1
 C  -16.43292  -14.15644  -3.99553
 C  -15.17366  -14.02128  -4.58195
 C  -14.09273  -14.44692  -3.74848
 C  -14.50052  -14.92057  -2.49760
 S  -16.15376  -14.78964  -2.48881
 H  -14.81849  -13.04663  -5.13486
 C  -12.57471  -14.35235  -4.29741
 C  -12.16095  -12.85128  -5.00824
 C  -10.63070  -12.56718  -5.69951
 H  -10.80474  -11.82317  -6.57076
 H  -10.27797  -13.57553  -6.14480
 H  -12.90514  -12.66825  -5.86881
 H  -12.30981  -12.05409  -4.18896
 H  -11.82062  -14.52681  -3.42862
 H  -12.39468  -15.16540  -5.10699
 C  -9.46119  -11.97374  -4.73812
 C  -7.98741  -11.54582  -5.46699
 C  -7.87517  -11.65549  -7.14256
 H  -8.05341  -12.74944  -7.47189
 H  -6.81655  -11.31948  -7.47172
 H  -8.66591  -10.96466  -7.62805
 H  -7.76349  -10.45185  -5.17660
 H  -7.17284  -12.23049  -5.02113
 H  -9.21332  -12.76045  -3.92536
 H  -9.85858  -11.01978  -4.21497
 C  9.49357  9.13224  3.69930
 C  10.14084  10.23944  4.24979
 C  9.27128  11.14093  4.93932
 C  7.93062  10.74356  4.93329
 S  7.89222  9.31779  4.08703
 H  11.27084  10.39737  4.20453
 C  9.76806  12.48939  5.68049
 C  10.96602  13.48085  5.01176
 C  12.46708  13.02253  5.65527
 H  12.53243  11.86919  5.59756
 H  12.44683  13.32952  6.77389
 H  10.98551  13.34266  3.87247
 H  10.75540  14.57712  5.28179
 H  8.84958  13.20322  5.81962
 H  10.16544  12.21548  6.74080
 C  13.78585  13.67146  4.96290
 C  14.20512  15.24514  5.40729
 C  13.52854  16.39698  4.38163
 H  13.02804  15.87527  3.47780
 H  14.36185  17.10557  4.00213
 H  12.73444  17.00635  4.96210
 H  13.84083  15.44258  6.48105
 H  15.35237  15.34308  5.36335
 H  13.65827  13.64930  3.81321
 H  14.69715  13.00548  5.23572
 H  -17.37016  -13.90690  -4.42323
 H  -13.88238  -15.28666  -1.71819
 H  9.93306  8.33979  3.14931
 H  7.11058  11.24800  5.37675
*
