# ================================================================
# Orca input file made by Matty Jones
# ================================================================
! ZINDO/S 
! NOPOP
! NOMOPRINT
* xyz 0   1
 C  22.51263  -2.28790  -4.06936
 C  22.11016  -3.61630  -3.92349
 C  22.81997  -4.33356  -2.91059
 C  23.78782  -3.56767  -2.25332
 S  23.71541  -2.06449  -2.95021
 H  21.29857  -4.10528  -4.56341
 C  22.60261  -5.88048  -2.47225
 C  21.12501  -6.59087  -2.03914
 C  20.19360  -7.27154  -3.25697
 H  19.89045  -6.43102  -3.99093
 H  20.84740  -8.04201  -3.81763
 H  21.35530  -7.42593  -1.27580
 H  20.49490  -5.77278  -1.52318
 H  22.97742  -6.54199  -3.36366
 H  23.28246  -6.13973  -1.56863
 C  18.85948  -8.00746  -2.68010
 C  17.91263  -8.63964  -3.92440
 C  16.90041  -7.46424  -4.57520
 H  15.89340  -7.94724  -4.87652
 H  17.40851  -7.00709  -5.50985
 H  16.71221  -6.63133  -3.79406
 H  18.59796  -9.05118  -4.75191
 H  17.26449  -9.49022  -3.49658
 H  19.16826  -8.88667  -1.99338
 H  18.22443  -7.26384  -2.06668
 C  -22.40576  2.65566  5.00986
 C  -22.30624  3.79051  4.20357
 C  -22.80146  4.98518  4.81331
 C  -23.29450  4.79270  6.10760
 S  -23.09458  3.17724  6.42498
 H  -22.11571  3.71104  3.07971
 C  -22.69110  6.33569  3.92974
 C  -21.13067  6.37319  3.18971
 C  -20.58908  7.56194  2.11263
 H  -20.39440  8.52012  2.72669
 H  -21.44013  7.76331  1.35771
 H  -20.38440  6.36809  4.07156
 H  -21.01441  5.39504  2.59297
 H  -23.48461  6.33882  3.08742
 H  -22.81475  7.28704  4.57791
 C  -19.22420  7.15637  1.30183
 C  -17.74693  7.91012  1.64257
 C  -16.72242  7.19715  2.76758
 H  -17.28156  7.06822  3.77129
 H  -15.80051  7.88211  2.92175
 H  -16.37344  6.16603  2.37475
 H  -17.16479  7.96785  0.64508
 H  -17.97946  8.98045  2.00225
 H  -19.41718  7.31465  0.16942
 H  -19.03225  6.02231  1.47057
 H  22.13004  -1.57265  -4.75174
 H  24.43275  -3.88202  -1.47303
 H  -22.10450  1.66846  4.76843
 H  -23.70920  5.52583  6.75114
*
