# ================================================================
# Orca input file made by Matty Jones
# ================================================================
! ZINDO/S 
! NOPOP
! NOMOPRINT
* xyz 0   1
 C  10.17999  8.10674  -4.12131
 C  11.37951  8.77974  -3.88443
 C  12.29681  8.06331  -3.05405
 C  11.81921  6.81831  -2.63310
 S  10.30836  6.67152  -3.30109
 H  11.59459  9.92890  -3.71209
 C  13.79350  8.41792  -2.47879
 C  15.23987  9.09295  -3.09350
 C  15.56548  10.73757  -2.84593
 H  16.10118  11.13037  -3.79180
 H  14.55724  11.28475  -2.72704
 H  16.11270  8.49634  -2.63192
 H  15.22576  8.91764  -4.23225
 H  13.59621  9.11727  -1.55538
 H  14.21293  7.41545  -2.03052
 C  16.50990  11.04215  -1.53962
 C  15.73752  11.26726  -0.04903
 C  16.76705  11.66869  1.22651
 H  17.73874  11.04626  1.15238
 H  16.23556  11.44186  2.22898
 H  17.02093  12.79629  1.16891
 H  14.96705  12.11432  -0.16885
 H  15.19878  10.28629  0.22438
 H  17.25337  10.16630  -1.39635
 H  17.12145  12.00437  -1.74243
 C  -15.75517  -12.05500  -1.95509
 C  -15.14732  -11.61646  -0.77776
 C  -15.96588  -10.75334  0.01549
 C  -17.22645  -10.50910  -0.53826
 S  -17.26139  -11.36192  -1.96020
 H  -14.22485  -12.11340  -0.29811
 C  -15.28693  -10.17190  1.34916
 C  -13.74344  -9.59725  1.00857
 C  -12.69456  -9.00346  2.17982
 H  -12.80460  -7.84992  2.19834
 H  -11.61542  -9.25520  1.83966
 H  -13.15696  -10.45324  0.50026
 H  -13.90205  -8.74431  0.24354
 H  -15.94578  -9.32943  1.80906
 H  -15.22715  -11.02671  2.13760
 C  -12.93855  -9.59713  3.66879
 C  -14.08918  -8.71988  4.52777
 C  -13.41280  -7.37178  5.26820
 H  -12.64990  -7.71234  6.06788
 H  -14.25155  -6.74895  5.76622
 H  -12.87643  -6.72979  4.46850
 H  -14.91975  -8.37665  3.80859
 H  -14.53575  -9.40327  5.34064
 H  -11.94364  -9.57312  4.26073
 H  -13.29706  -10.69562  3.60281
 H  9.35984  8.44237  -4.70295
 H  12.31833  6.11551  -2.01622
 H  -15.34118  -12.69599  -2.69085
 H  -17.99812  -9.90529  -0.13386
*
