# ================================================================
# Orca input file made by Matty Jones
# ================================================================
! ZINDO/S 
! NOPOP
! NOMOPRINT
* xyz 0   1
 C  19.16513  6.74057  30.60508
 C  19.71975  5.87396  29.66206
 C  20.86379  5.15581  30.13075
 C  21.21432  5.45685  31.45053
 S  20.10589  6.57995  31.96091
 H  19.42598  6.03455  28.57196
 C  21.47089  4.15073  29.00780
 C  20.26651  3.86868  27.75495
 C  18.88956  2.86522  27.84781
 H  19.25260  1.79040  27.62278
 H  18.55582  2.91344  28.95715
 H  20.93274  3.26200  27.00115
 H  19.99780  4.82802  27.18559
 H  21.73302  3.12490  29.46860
 H  22.39978  4.61148  28.49897
 C  17.55347  3.14854  26.92511
 C  17.31669  4.53782  25.96834
 C  15.83679  4.57574  25.14337
 H  15.06187  3.92711  25.70596
 H  15.98579  4.16208  24.07313
 H  15.45850  5.66803  25.08640
 H  18.16153  4.58784  25.18993
 H  17.36108  5.45780  26.65794
 H  17.45293  2.25969  26.18638
 H  16.63739  3.12479  27.63810
 C  -15.34391  -2.46049  -29.56276
 C  -16.21630  -3.07965  -28.66640
 C  -16.91808  -2.17190  -27.81331
 C  -16.59822  -0.82918  -28.03717
 S  -15.47968  -0.83569  -29.26161
 H  -15.82882  -4.03963  -28.12209
 C  -17.97774  -2.73953  -26.72687
 C  -19.12264  -3.75143  -27.52475
 C  -20.46642  -4.71128  -27.07557
 H  -20.75563  -4.39373  -26.00190
 H  -21.33220  -4.43703  -27.79100
 H  -18.41883  -4.52616  -27.98336
 H  -19.55459  -3.05453  -28.34112
 H  -18.56726  -1.87863  -26.22211
 H  -17.44253  -3.36864  -25.91252
 C  -20.24186  -6.32959  -27.10797
 C  -20.43102  -7.04930  -28.64323
 C  -21.92581  -7.63870  -29.14079
 H  -21.78056  -8.67927  -29.62837
 H  -22.37980  -6.91247  -29.92046
 H  -22.63345  -7.72900  -28.23205
 H  -19.68870  -7.93076  -28.69396
 H  -20.15034  -6.24904  -29.42386
 H  -21.01156  -6.83501  -26.40923
 H  -19.18019  -6.58218  -26.73265
 H  18.32056  7.36893  30.48072
 H  22.01984  5.05200  32.00805
 H  -14.72503  -2.92998  -30.28399
 H  -16.98887  0.01589  -27.53038
*
