# ================================================================
# Orca input file made by Matty Jones
# ================================================================
! ZINDO/S 
! NOPOP
! NOMOPRINT
* xyz 0   1
 C  -1.68445  2.90942  -1.49891
 C  -2.18026  1.71573  -2.02538
 C  -1.58800  0.54055  -1.46642
 C  -0.61964  0.80764  -0.49366
 S  -0.54819  2.46049  -0.37799
 H  -2.92878  1.64825  -2.88628
 C  -2.04394  -0.94001  -1.94918
 C  -3.70244  -1.42689  -1.84812
 C  -5.18015  -1.42396  -2.74788
 H  -5.66183  -2.44308  -2.45095
 H  -5.79580  -0.58841  -2.21741
 H  -3.57450  -2.56608  -1.64566
 H  -4.02717  -0.91551  -0.85859
 H  -1.43874  -1.76651  -1.40245
 H  -1.79697  -1.04035  -3.08909
 C  -5.49171  -1.24130  -4.34164
 C  -5.69754  -2.68052  -5.22355
 C  -7.25677  -3.33211  -5.23208
 H  -7.33870  -4.12657  -4.39392
 H  -7.45791  -3.83131  -6.25696
 H  -8.03258  -2.49449  -5.04960
 H  -5.41412  -2.45498  -6.31828
 H  -4.97972  -3.47075  -4.79407
 H  -6.46623  -0.62917  -4.46848
 H  -4.62280  -0.66009  -4.83347
 C  -0.55442  -0.89874  0.74421
 C  0.67724  -0.25941  0.89305
 C  1.59260  -0.94755  1.74912
 C  1.08114  -2.13625  2.27893
 S  -0.45509  -2.27141  1.66889
 H  0.89460  0.89288  1.03804
 C  3.08062  -0.39975  2.07302
 C  3.26829  1.18762  2.66364
 C  4.85297  1.76696  2.92066
 H  4.75016  2.92431  2.83199
 H  5.47758  1.41317  2.01807
 H  2.76833  1.90050  1.91197
 H  2.72029  1.23831  3.67507
 H  3.60889  -1.09215  2.84338
 H  3.71110  -0.43548  1.08924
 C  5.65381  1.48694  4.31376
 C  7.27458  2.00422  4.29818
 C  7.60298  3.57529  4.80561
 H  7.75428  4.25212  3.87857
 H  8.57047  3.57503  5.44275
 H  6.72217  3.97445  5.43902
 H  7.87229  1.28423  4.97211
 H  7.65262  1.91681  3.21190
 H  5.65763  0.35261  4.53483
 H  5.12455  2.03359  5.18348
 H  -1.97339  3.89516  -1.76051
 H  -0.05041  0.10151  0.05494
 H  -1.37940  -0.57502  0.16265
 H  1.57246  -2.80993  2.93344
*
