# ================================================================
# Orca input file made by Matty Jones
# ================================================================
! ZINDO/S 
! NOPOP
! NOMOPRINT
* xyz 0   1
 C  -13.42676  16.56837  21.54210
 C  -12.24528  17.23789  21.86424
 C  -11.41673  16.54286  22.79950
 C  -11.94663  15.31836  23.21798
 S  -13.39207  15.16226  22.42002
 H  -11.95429  18.25639  21.43646
 C  -9.94434  16.89338  23.47932
 C  -8.97198  18.16730  24.23691
 C  -7.72789  19.20080  23.65428
 H  -8.14174  19.71981  22.71159
 H  -6.85564  18.50298  23.34952
 H  -8.47488  17.63009  25.13004
 H  -9.77789  18.89399  24.62917
 H  -9.88636  16.18510  24.40121
 H  -9.16194  16.52494  22.68467
 C  -7.12497  20.34742  24.67216
 C  -6.07660  20.05792  25.99882
 C  -4.39272  20.06379  25.86049
 H  -4.09231  20.13971  24.74795
 H  -3.97472  19.08176  26.31143
 H  -3.95819  20.96431  26.44498
 H  -6.32537  20.89085  26.76345
 H  -6.38107  19.03914  26.44446
 H  -8.02923  20.91419  25.12171
 H  -6.52794  21.08918  24.00681
 C  10.43458  -14.21709  -26.95784
 C  9.65376  -15.14612  -26.26855
 C  10.40759  -16.08229  -25.49422
 C  11.79063  -15.89151  -25.57246
 S  12.00499  -14.59286  -26.58140
 H  8.51199  -15.14832  -26.28219
 C  9.78656  -17.30180  -24.60788
 C  8.52947  -17.24223  -23.43451
 C  8.19250  -18.74139  -22.64715
 H  8.11721  -18.47083  -21.52212
 H  9.15269  -19.37343  -22.80373
 H  7.56763  -16.91116  -23.96657
 H  8.82410  -16.48158  -22.62882
 H  10.67113  -17.79199  -24.01665
 H  9.38854  -18.10665  -25.36177
 C  6.92405  -19.71557  -22.99328
 C  6.86958  -21.20844  -22.16982
 C  7.47860  -22.51512  -23.04420
 H  8.60160  -22.34634  -23.25970
 H  6.89772  -22.60145  -24.04249
 H  7.33847  -23.48722  -22.43222
 H  7.49247  -21.10723  -21.20556
 H  5.77374  -21.43364  -21.89846
 H  6.91254  -19.94729  -24.12385
 H  5.94693  -19.16116  -22.71512
 H  -14.18612  16.89083  20.87653
 H  -11.51485  14.63333  23.90201
 H  10.09520  -13.43598  -27.58894
 H  12.54425  -16.45828  -25.08828
*
