# ================================================================
# Orca input file made by Matty Jones
# ================================================================
! ZINDO/S 
! NOPOP
! NOMOPRINT
* xyz 0   1
 C  20.17266  1.41196  5.42656
 C  21.43193  1.54711  4.84013
 C  22.51285  1.12147  5.67361
 C  22.10507  0.64782  6.92449
 S  20.45182  0.77875  6.93328
 H  21.78709  2.52176  4.28723
 C  24.03087  1.21604  5.12468
 C  24.44463  2.71711  4.41384
 C  25.97489  3.00122  3.72258
 H  25.80084  3.74522  2.85133
 H  26.32762  1.99287  3.27729
 H  23.70045  2.90014  3.55328
 H  24.29578  3.51431  5.23313
 H  24.78497  1.04159  5.99347
 H  24.21090  0.40300  4.31510
 C  27.14439  3.59466  4.68397
 C  28.61818  4.02257  3.95509
 C  28.73042  3.91290  2.27953
 H  28.55218  2.81896  1.95020
 H  29.78904  4.24891  1.95037
 H  27.93968  4.60374  1.79404
 H  28.84209  5.11654  4.24549
 H  29.43275  3.33790  4.40096
 H  27.39227  2.80795  5.49672
 H  26.74700  4.54862  5.20712
 C  -20.35540  -1.41020  -6.15697
 C  -21.43290  -2.21089  -5.77517
 C  -22.48435  -1.49984  -5.11706
 C  -22.23585  -0.13076  -4.97848
 S  -20.74918  0.12433  -5.66782
 H  -21.47383  -3.33125  -5.99512
 C  -23.70215  -2.49441  -4.70470
 C  -25.35135  -2.31981  -5.04936
 C  -26.44534  -1.59459  -4.00500
 H  -25.89793  -0.76831  -3.41447
 H  -27.29142  -1.11900  -4.63080
 H  -25.39554  -1.71290  -6.03696
 H  -25.74868  -3.38336  -5.26522
 H  -23.68307  -2.57143  -3.52743
 H  -23.45805  -3.56891  -5.09784
 C  -27.07222  -2.69315  -2.96699
 C  -28.39808  -3.62387  -3.47248
 C  -28.04948  -5.16522  -4.05919
 H  -29.03836  -5.75823  -4.17149
 H  -27.35769  -5.71217  -3.30985
 H  -27.52726  -5.08318  -5.08688
 H  -28.93651  -3.04443  -4.31072
 H  -29.10699  -3.74295  -2.57136
 H  -26.23808  -3.44142  -2.67214
 H  -27.41190  -2.13484  -2.01076
 H  19.23543  1.66150  4.99886
 H  22.72320  0.28174  7.70390
 H  -19.47164  -1.71817  -6.65469
 H  -22.86578  0.59258  -4.52730
*
