# ================================================================
# Orca input file made by Matty Jones
# ================================================================
! ZINDO/S 
! NOPOP
! NOMOPRINT
* xyz 0   1
 C  -19.48975  -2.61522  25.18744
 C  -18.30827  -1.94571  25.50958
 C  -17.47972  -2.64073  26.44484
 C  -18.00962  -3.86523  26.86332
 S  -19.45506  -4.02134  26.06536
 H  -18.01728  -0.92720  25.08179
 C  -16.00733  -2.29022  27.12465
 C  -15.03497  -1.01629  27.88225
 C  -13.79088  0.01721  27.29962
 H  -14.20473  0.53622  26.35693
 H  -12.91863  -0.68061  26.99485
 H  -14.53787  -1.55350  28.77538
 H  -15.84088  -0.28961  28.27450
 H  -15.94935  -2.99849  28.04654
 H  -15.22493  -2.65866  26.33001
 C  -13.18796  1.16383  28.31750
 C  -12.13959  0.87432  29.64416
 C  -10.45571  0.88020  29.50583
 H  -10.15530  0.95612  28.39329
 H  -10.03771  -0.10183  29.95677
 H  -10.02118  1.78071  30.09032
 H  -12.38836  1.70726  30.40879
 H  -12.44406  -0.14445  30.08980
 H  -14.09222  1.73059  28.76705
 H  -12.59093  1.90558  27.65214
 C  19.15804  1.33958  -29.00567
 C  17.81467  1.53182  -28.67965
 C  17.58754  1.85184  -27.30478
 C  18.75748  1.91261  -26.54131
 S  19.99395  1.57197  -27.59275
 H  16.96489  1.44331  -29.43699
 C  16.22616  2.16201  -26.45284
 C  14.71570  1.39908  -26.05520
 C  13.12500  1.29694  -26.65627
 H  12.44768  1.59665  -25.75662
 H  13.04704  2.14582  -27.44379
 H  15.03525  0.28421  -25.99428
 H  14.54280  1.78384  -24.97198
 H  15.80154  3.15493  -26.94338
 H  16.58599  2.46853  -25.37817
 C  12.47203  -0.04553  -27.30043
 C  12.47711  -0.12141  -28.97814
 C  11.26685  -1.14400  -29.54880
 H  11.28844  -2.14136  -28.96448
 H  11.43170  -1.34152  -30.67618
 H  10.24089  -0.62730  -29.39431
 H  12.31027  0.93259  -29.40814
 H  13.49679  -0.52987  -29.32489
 H  13.05246  -0.97162  -26.91226
 H  11.37234  -0.14004  -26.94743
 H  -20.24911  -2.29277  24.52187
 H  -17.57784  -4.55026  27.54735
 H  19.55930  1.09630  -29.95614
 H  18.83732  2.13072  -25.50707
*
