# ================================================================
# Orca input file made by Matty Jones
# ================================================================
! ZINDO/S 
! NOPOP
! NOMOPRINT
* xyz 0   1
 C  18.11821  -2.84381  5.40074
 C  19.37747  -2.70865  4.81432
 C  20.45840  -3.13429  5.64779
 C  20.05062  -3.60794  6.89867
 S  18.39737  -3.47701  6.90746
 H  19.73264  -1.73400  4.26142
 C  21.97642  -3.03972  5.09886
 C  22.39018  -1.53865  4.38803
 C  23.92044  -1.25455  3.69676
 H  23.74639  -0.51054  2.82551
 H  24.27317  -2.26289  3.25147
 H  21.64600  -1.35562  3.52746
 H  22.24133  -0.74146  5.20731
 H  22.73052  -3.21418  5.96765
 H  22.15645  -3.85276  4.28928
 C  25.08994  -0.66111  4.65815
 C  26.56373  -0.23319  3.92928
 C  26.67597  -0.34286  2.25371
 H  26.49773  -1.43681  1.92438
 H  27.73459  -0.00685  1.92456
 H  25.88523  0.34798  1.76822
 H  26.78764  0.86078  4.21967
 H  27.37830  -0.91786  4.37514
 H  25.33782  -1.44782  5.47091
 H  24.69255  0.29285  5.18130
 C  -24.86015  -3.03406  -4.20776
 C  -24.09462  -1.86712  -4.19688
 C  -24.67988  -0.79177  -3.45840
 C  -25.91377  -1.11119  -2.88325
 S  -26.21150  -2.68517  -3.31264
 H  -23.06889  -1.76226  -4.68594
 C  -23.75349  0.54599  -3.49228
 C  -24.17290  2.16412  -3.77387
 C  -22.73110  3.09172  -3.85392
 H  -22.99024  4.17046  -3.53865
 H  -21.96871  2.64939  -3.11085
 H  -24.73349  2.24485  -4.77196
 H  -24.81424  2.55402  -2.90937
 H  -23.21693  0.58658  -2.45411
 H  -22.90164  0.37212  -4.28669
 C  -22.09603  3.09507  -5.36294
 C  -20.61170  3.86868  -5.63328
 C  -20.70228  5.48284  -6.09725
 H  -21.68429  5.66658  -6.68063
 H  -19.79820  5.73613  -6.77530
 H  -20.67816  6.15367  -5.15469
 H  -19.99286  3.80447  -4.66400
 H  -20.06782  3.29377  -6.47347
 H  -21.94836  1.99684  -5.70135
 H  -22.86089  3.59330  -6.07673
 H  17.18098  -2.59427  4.97304
 H  20.66875  -3.97403  7.67808
 H  -24.62684  -3.95020  -4.68718
 H  -26.52984  -0.47956  -2.29579
*
