# ================================================================
# Orca input file made by Matty Jones
# ================================================================
! ZINDO/S 
! NOPOP
! NOMOPRINT
* xyz 0   1
 C  17.79856  8.58071  2.54194
 C  17.39608  7.25231  2.68781
 C  18.10590  6.53505  3.70071
 C  19.07375  7.30095  4.35798
 S  19.00134  8.80412  3.66109
 H  16.58449  6.76333  2.04788
 C  17.88853  4.98814  4.13905
 C  16.41093  4.27774  4.57216
 C  15.47952  3.59707  3.35433
 H  15.17637  4.43760  2.62037
 H  16.13332  2.82660  2.79367
 H  16.64123  3.44268  5.33550
 H  15.78082  5.09583  5.08812
 H  18.26335  4.32663  3.24764
 H  18.56838  4.72888  5.04267
 C  14.14541  2.86116  3.93119
 C  13.19855  2.22897  2.68690
 C  12.18634  3.40437  2.03610
 H  11.17932  2.92138  1.73477
 H  12.69443  3.86153  1.10145
 H  11.99814  4.23729  2.81724
 H  13.88388  1.81743  1.85939
 H  12.55041  1.37839  3.11472
 H  14.45418  1.98194  4.61791
 H  13.51036  3.60477  4.54462
 C  -10.74499  -5.03136  -2.95867
 C  -11.84626  -5.55069  -3.64087
 C  -12.99368  -4.69769  -3.63243
 C  -12.79746  -3.49875  -2.94006
 S  -11.23658  -3.55637  -2.38261
 H  -11.68300  -5.81149  -4.81122
 C  -14.30982  -5.22375  -4.40919
 C  -15.90832  -4.84744  -4.02526
 C  -16.63995  -5.77930  -2.82732
 H  -16.28113  -6.87112  -2.94691
 H  -16.27518  -5.37714  -1.80510
 H  -15.95988  -3.74262  -3.71235
 H  -16.52662  -4.99228  -4.99281
 H  -14.28975  -6.39586  -4.39968
 H  -14.20028  -4.90955  -5.53705
 C  -18.26743  -5.72981  -2.88573
 C  -19.00251  -4.31583  -2.33302
 C  -19.28877  -3.21346  -3.57689
 H  -18.50633  -2.36328  -3.52032
 H  -20.35225  -2.77300  -3.45433
 H  -19.20961  -3.74414  -4.60201
 H  -20.01039  -4.58916  -1.84804
 H  -18.31706  -3.81820  -1.55362
 H  -18.61605  -5.91202  -3.97385
 H  -18.68085  -6.59188  -2.22808
 H  17.41596  9.29596  1.85956
 H  19.71867  6.98659  5.13827
 H  -9.79470  -5.48438  -2.83492
 H  -13.49940  -2.71679  -2.80068
*
