# ================================================================
# Orca input file made by Matty Jones
# ================================================================
! ZINDO/S 
! NOPOP
! NOMOPRINT
* xyz 0   1
 C  -15.47149  12.77132  24.51736
 C  -14.29002  13.44083  24.83950
 C  -13.46147  12.74581  25.77476
 C  -13.99136  11.52131  26.19324
 S  -15.43681  11.36521  25.39528
 H  -13.99902  14.45934  24.41172
 C  -11.98908  13.09633  26.45457
 C  -11.01672  14.37025  27.21217
 C  -9.77262  15.40375  26.62954
 H  -10.18647  15.92276  25.68685
 H  -8.90038  14.70593  26.32478
 H  -10.51962  13.83304  28.10530
 H  -11.82263  15.09694  27.60442
 H  -11.93110  12.38805  27.37646
 H  -11.20668  12.72789  25.65993
 C  -9.16971  16.55037  27.64742
 C  -8.12134  16.26087  28.97408
 C  -6.43745  16.26674  28.83575
 H  -6.13705  16.34266  27.72321
 H  -6.01945  15.28471  29.28669
 H  -6.00292  17.16726  29.42024
 H  -8.37010  17.09380  29.73871
 H  -8.42581  15.24209  29.41972
 H  -10.07397  17.11713  28.09697
 H  -8.57267  17.29213  26.98206
 C  6.91518  -15.54658  -26.90150
 C  8.29836  -15.36059  -26.89139
 C  8.96906  -16.02559  -25.81798
 C  8.11114  -16.74028  -24.97624
 S  6.58932  -16.51496  -25.59568
 H  8.85620  -14.85834  -27.74993
 C  10.57236  -15.85739  -25.72805
 C  11.02854  -14.22295  -25.91760
 C  12.64698  -13.75174  -25.92979
 H  12.69985  -12.72583  -25.39364
 H  13.22741  -14.52415  -25.29137
 H  10.56961  -13.84334  -26.90326
 H  10.52977  -13.65974  -25.03893
 H  10.97238  -16.17888  -24.68586
 H  11.09838  -16.48484  -26.54562
 C  13.37728  -13.61448  -27.38415
 C  12.54341  -13.99384  -28.81035
 C  11.72913  -12.71937  -29.55302
 H  12.27793  -12.43457  -30.53199
 H  11.70176  -11.80525  -28.84474
 H  10.64771  -13.05053  -29.80059
 H  13.32434  -14.38828  -29.56472
 H  11.78621  -14.83098  -28.58366
 H  13.72690  -12.51499  -27.50467
 H  14.31987  -14.28980  -27.37656
 H  -16.23086  13.09377  23.85179
 H  -13.55959  10.83628  26.87727
 H  6.21964  -15.15195  -27.59727
 H  8.37768  -17.30733  -24.12125
*
