# ================================================================
# Orca input file made by Matty Jones
# ================================================================
! ZINDO/S 
! NOPOP
! NOMOPRINT
* xyz 0   1
 C  -6.05419  0.31977  -2.87500
 C  -4.83018  0.95747  -2.66754
 C  -3.92316  0.22507  -1.83978
 C  -4.43355  -0.99712  -1.39136
 S  -5.95872  -1.10572  -2.03360
 H  -4.14997  1.53055  -3.46503
 C  -2.45874  0.82516  -1.49912
 C  -2.31225  2.38003  -0.79330
 C  -0.77428  3.10963  -0.57967
 H  -1.05913  4.23465  -0.42016
 H  -0.25071  3.02986  -1.60771
 H  -2.92639  3.09291  -1.45597
 H  -2.78709  2.30635  0.25273
 H  -1.90160  0.10106  -0.78290
 H  -1.83856  0.87922  -2.48703
 C  0.30993  2.79145  0.59871
 C  1.90566  3.20823  0.14899
 C  2.55968  4.71476  0.51464
 H  2.55867  4.86090  1.66168
 H  1.93830  5.54533  0.00556
 H  3.65081  4.75017  0.12415
 H  2.60206  2.43056  0.64118
 H  1.96225  3.11127  -1.00008
 H  0.29651  1.66540  0.84987
 H  0.05571  3.39238  1.55213
 C  -1.36553  -3.91671  2.38242
 C  -0.11613  -3.29802  2.31816
 C  0.86519  -3.87261  3.18483
 C  0.38826  -4.95046  3.93724
 S  -1.20014  -5.13324  3.49678
 H  0.05751  -2.30895  1.78812
 C  2.32012  -3.18141  3.14436
 C  2.89863  -2.82764  1.55366
 C  2.60269  -1.37971  0.66024
 H  2.50109  -0.55497  1.46818
 H  3.58317  -1.19270  0.07043
 H  4.04741  -2.89341  1.63519
 H  2.51228  -3.68039  0.88190
 H  2.31856  -2.18512  3.73873
 H  3.10788  -3.89676  3.61148
 C  1.36381  -1.18322  -0.39315
 C  1.42787  0.23611  -1.33522
 C  2.00085  0.17200  -2.91945
 H  1.35095  -0.56191  -3.53334
 H  3.10171  -0.18014  -2.91918
 H  1.93182  1.23064  -3.38551
 H  0.38148  0.70452  -1.35725
 H  2.17552  0.91062  -0.78392
 H  1.33116  -2.07891  -1.12022
 H  0.36022  -1.11158  0.16833
 H  -6.87233  0.67242  -3.44936
 H  -3.94741  -1.70581  -0.77086
 H  -2.23650  -3.66248  1.83436
 H  0.92879  -5.52947  4.64163
*
