# ================================================================
# Orca input file made by Matty Jones
# ================================================================
! ZINDO/S 
! NOPOP
! NOMOPRINT
* xyz 0   1
 C  16.64788  -0.18796  -15.40762
 C  17.80593  0.46460  -14.98219
 C  18.62541  -0.31255  -14.10540
 C  18.11185  -1.58519  -13.83714
 S  16.69088  -1.68057  -14.68694
 H  18.09180  1.52655  -15.28797
 C  20.06466  0.01951  -13.36011
 C  20.93447  1.24073  -12.42959
 C  22.05367  2.47585  -12.84837
 H  21.49726  3.48339  -12.80822
 H  22.40071  2.26747  -13.92863
 H  21.51991  0.59338  -11.67085
 H  20.08760  1.79502  -11.87886
 H  20.21441  -0.82422  -12.57990
 H  20.85151  -0.14094  -14.20567
 C  23.37933  2.54341  -11.87068
 C  23.58326  3.74824  -10.68105
 C  24.55680  5.04543  -11.15179
 H  23.92730  6.01571  -11.16747
 H  24.98891  4.84704  -12.20647
 H  25.42753  5.16173  -10.39650
 H  22.54402  4.16039  -10.40874
 H  24.06260  3.26239  -9.75331
 H  24.31635  2.60828  -12.54906
 H  23.44466  1.54640  -11.28116
 C  -23.03303  -4.94218  10.33151
 C  -22.42095  -4.21342  11.35238
 C  -23.26327  -3.22444  11.94962
 C  -24.54693  -3.17201  11.39756
 S  -24.57184  -4.33568  10.21617
 H  -21.33773  -4.36977  11.68009
 C  -22.82635  -2.21927  13.13718
 C  -21.63805  -1.10549  12.69367
 C  -21.18418  0.05839  13.83381
 H  -22.06607  0.15644  14.58083
 H  -21.07672  1.06668  13.27449
 H  -20.69907  -1.69766  12.38813
 H  -22.04309  -0.53408  11.77433
 H  -23.71681  -1.66860  13.63374
 H  -22.33750  -2.85770  13.99116
 C  -19.82791  -0.25768  14.66719
 C  -18.45779  0.18932  13.77833
 C  -17.93343  -1.06202  12.78133
 H  -16.77878  -1.12411  12.82304
 H  -18.27271  -0.85202  11.69469
 H  -18.38562  -2.06560  13.13914
 H  -18.71141  1.10141  13.12311
 H  -17.61405  0.46147  14.51169
 H  -19.76141  -1.37855  14.93020
 H  -19.82090  0.35785  15.64711
 H  15.89882  0.19079  -16.05496
 H  18.54094  -2.33250  -13.21987
 H  -22.60449  -5.71950  9.75210
 H  -25.33839  -2.52415  11.67590
*
