# ================================================================
# Orca input file made by Matty Jones
# ================================================================
! ZINDO/S 
! NOPOP
! NOMOPRINT
* xyz 0   1
 C  26.22833  -1.14494  -6.73347
 C  25.82585  -2.47334  -6.58760
 C  26.53567  -3.19060  -5.57470
 C  27.50351  -2.42470  -4.91743
 S  27.43111  -0.92153  -5.61432
 H  25.01426  -2.96232  -7.22752
 C  26.31830  -4.73751  -5.13636
 C  24.84070  -5.44791  -4.70325
 C  23.90929  -6.12858  -5.92107
 H  23.60614  -5.28805  -6.65504
 H  24.56309  -6.89905  -6.48174
 H  25.07100  -6.28297  -3.93991
 H  24.21059  -4.62982  -4.18729
 H  26.69311  -5.39902  -6.02777
 H  26.99815  -4.99677  -4.23274
 C  22.57517  -6.86449  -5.34421
 C  21.62832  -7.49668  -6.58851
 C  20.61610  -6.32128  -7.23930
 H  19.60909  -6.80427  -7.54063
 H  21.12420  -5.86412  -8.17395
 H  20.42790  -5.48836  -6.45817
 H  22.31365  -7.90822  -7.41602
 H  20.98018  -8.34726  -6.16069
 H  22.88395  -7.74371  -4.65749
 H  21.94012  -6.12088  -4.73078
 C  -20.43961  6.82830  4.56761
 C  -21.42371  6.23305  5.35826
 C  -22.06268  7.13072  6.26940
 C  -21.58070  8.44141  6.19785
 S  -20.40585  8.42093  5.02749
 H  -21.61265  5.10978  5.38976
 C  -23.23705  6.67112  7.27654
 C  -24.72990  6.22915  6.61287
 C  -25.02785  4.72095  5.92340
 H  -24.03131  4.47259  5.39399
 H  -25.82100  4.93926  5.09569
 H  -24.96892  7.02237  5.80668
 H  -25.49702  6.33999  7.47539
 H  -23.45945  7.51601  8.04538
 H  -22.86822  5.74609  7.88600
 C  -25.52755  3.36937  6.67888
 C  -25.82186  2.14873  5.52906
 C  -27.40106  2.01895  4.95967
 H  -27.59412  0.92778  4.62356
 H  -27.54602  2.73055  4.05841
 H  -28.14085  2.30233  5.80165
 H  -25.48765  1.14007  5.96487
 H  -25.20876  2.40878  4.59261
 H  -26.49895  3.56249  7.26784
 H  -24.70952  2.98985  7.39966
 H  25.84573  -0.42969  -7.41585
 H  28.14844  -2.73906  -4.13714
 H  -19.84017  6.36078  3.82889
 H  -21.89950  9.27378  6.77153
*
