# ================================================================
# Orca input file made by Matty Jones
# ================================================================
! ZINDO/S 
! NOPOP
! NOMOPRINT
* xyz 0   1
 C  -26.75507  -0.81778  -5.33175
 C  -25.52341  -0.17844  -5.18291
 C  -24.60806  -0.86658  -4.32684
 C  -25.11951  -2.05529  -3.79703
 S  -26.65574  -2.19044  -4.40708
 H  -25.30605  0.97385  -5.03793
 C  -23.12004  -0.31878  -4.00294
 C  -22.93236  1.26859  -3.41232
 C  -21.34769  1.84792  -3.15530
 H  -21.45050  3.00528  -3.24398
 H  -20.72308  1.49413  -4.05789
 H  -23.43232  1.98146  -4.16400
 H  -23.48037  1.31928  -2.40089
 H  -22.59176  -1.01119  -3.23259
 H  -22.48955  -0.35451  -4.98672
 C  -20.54684  1.56790  -1.76220
 C  -18.92608  2.08519  -1.77779
 C  -18.59767  3.65625  -1.27036
 H  -18.44637  4.33309  -2.19739
 H  -17.63018  3.65599  -0.63321
 H  -19.47848  4.05542  -0.63695
 H  -18.32837  1.36519  -1.10385
 H  -18.54804  1.99777  -2.86406
 H  -20.54303  0.43357  -1.54113
 H  -21.07611  2.11456  -0.89248
 C  19.67696  -4.26015  1.42345
 C  20.55554  -3.32271  1.96859
 C  19.92652  -2.35402  2.81132
 C  18.54427  -2.52741  2.93224
 S  18.17828  -3.85151  2.00317
 H  21.67829  -3.32068  1.77497
 C  20.71657  -1.15316  3.53678
 C  21.73131  -0.22408  2.56586
 C  22.38829  1.07488  3.42391
 H  21.52079  1.56375  4.01839
 H  22.75551  1.84256  2.63678
 H  22.57683  -0.88704  2.16440
 H  21.11135  0.19406  1.68951
 H  20.05949  -0.40699  4.12332
 H  21.42302  -1.64313  4.34553
 C  23.60446  0.74120  4.44667
 C  25.13266  0.63662  3.74674
 C  25.52613  -0.94615  3.33401
 H  26.54775  -0.95456  2.79113
 H  24.71433  -1.38487  2.63832
 H  25.59387  -1.58158  4.29957
 H  25.15471  1.28244  2.79369
 H  25.91181  1.02779  4.49920
 H  23.39099  -0.26144  4.98428
 H  23.65680  1.57697  5.24911
 H  -27.58005  -0.49406  -5.91331
 H  -24.62820  -2.72896  -3.14253
 H  19.91714  -5.06389  0.77545
 H  17.87128  -1.93630  3.49905
*
