# ================================================================
# Orca input file made by Matty Jones
# ================================================================
! ZINDO/S 
! NOPOP
! NOMOPRINT
* xyz 0   1
 C  15.70523  13.62903  4.24941
 C  15.29957  12.29423  4.28984
 C  15.98875  11.50373  5.26165
 C  16.94343  12.21795  5.99228
 S  16.88539  13.76809  5.40569
 H  14.47250  11.86146  3.63486
 C  15.78809  9.93355  5.59045
 C  14.32638  9.20744  6.04827
 C  13.27763  8.58308  4.89764
 H  12.90039  9.45666  4.24210
 H  13.86821  7.84191  4.23609
 H  14.59914  8.34156  6.76314
 H  13.73886  10.00718  6.64345
 H  16.54664  9.58779  6.40726
 H  16.08683  9.34185  4.61640
 C  12.00999  7.82147  5.58509
 C  10.97464  7.13060  4.44697
 C  9.85929  8.24203  3.85939
 H  8.87370  7.69538  3.59685
 H  10.29182  8.74230  2.90895
 H  9.65192  9.05092  4.66072
 H  11.59919  6.72226  3.57042
 H  10.40315  6.26655  4.95133
 H  12.39654  6.97011  6.26718
 H  11.40558  8.56565  6.22976
 C  -12.51802  -5.84980  -6.87465
 C  -12.43559  -6.98585  -6.06812
 C  -12.31073  -6.70303  -4.67217
 C  -12.29449  -5.33676  -4.37492
 S  -12.43351  -4.56148  -5.83438
 H  -12.02295  -7.96939  -6.51670
 C  -12.23622  -8.03950  -3.77376
 C  -13.59752  -8.99418  -4.36878
 C  -14.39185  -10.50929  -4.21287
 H  -15.52488  -10.29497  -4.15222
 H  -14.03910  -10.99421  -3.22901
 H  -13.35210  -9.07260  -5.49311
 H  -14.47053  -8.24729  -4.21530
 H  -12.36365  -7.83960  -2.64933
 H  -11.25883  -8.62640  -3.98497
 C  -14.09841  -11.51637  -5.46815
 C  -15.18730  -12.80487  -5.58921
 C  -14.76218  -14.15136  -4.68643
 H  -15.41736  -15.04925  -5.00969
 H  -14.93727  -13.92680  -3.56426
 H  -13.64632  -14.40070  -4.86410
 H  -15.24632  -13.11815  -6.69785
 H  -16.22357  -12.44031  -5.24140
 H  -13.03357  -11.95327  -5.37757
 H  -14.17449  -10.92900  -6.46303
 H  15.33658  14.39283  3.61356
 H  17.57250  11.84637  6.76026
 H  -12.61434  -5.81745  -7.92977
 H  -12.21083  -4.89010  -3.41726
*
