# ================================================================
# Orca input file made by Matty Jones
# ================================================================
! ZINDO/S 
! NOPOP
! NOMOPRINT
* xyz 0   1
 C  -19.47253  -8.81353  -6.01304
 C  -18.22313  -8.19484  -6.07730
 C  -17.24182  -8.76943  -5.21063
 C  -17.71874  -9.84727  -4.45822
 S  -19.30714  -10.03006  -4.89868
 H  -18.04949  -7.20576  -6.60733
 C  -15.78688  -8.07823  -5.25110
 C  -15.20837  -7.72445  -6.84179
 C  -15.50431  -6.27652  -7.73521
 H  -15.60591  -5.45178  -6.92728
 H  -14.52383  -6.08952  -8.32503
 H  -14.05959  -7.79022  -6.76027
 H  -15.59472  -8.57721  -7.51355
 H  -15.78845  -7.08193  -4.65673
 H  -14.99912  -8.79358  -4.78398
 C  -16.74319  -6.08004  -8.78861
 C  -16.67913  -4.66071  -9.73068
 C  -16.10615  -4.72482  -11.31490
 H  -16.75606  -5.45873  -11.92879
 H  -15.00529  -5.07696  -11.31464
 H  -16.17519  -3.66618  -11.78097
 H  -17.72553  -4.19230  -9.75271
 H  -15.93148  -3.98620  -9.17938
 H  -16.77585  -6.97573  -9.51568
 H  -17.74679  -6.00840  -8.22712
 C  14.76397  3.74198  5.11485
 C  15.37604  4.47074  6.13572
 C  14.53373  5.45972  6.73296
 C  13.25006  5.51215  6.18090
 S  13.22515  4.34848  4.99951
 H  16.45926  4.31439  6.46342
 C  14.97064  6.46489  7.92052
 C  16.15895  7.57868  7.47700
 C  16.61282  8.74255  8.61715
 H  15.73092  8.84060  9.36417
 H  16.72027  9.75084  8.05782
 H  17.09793  6.98650  7.17146
 H  15.75390  8.15008  6.55766
 H  14.08018  7.01556  8.41708
 H  15.45950  5.82646  8.77449
 C  17.96909  8.42648  9.45052
 C  19.33921  8.87348  8.56166
 C  19.86357  7.62214  7.56466
 H  21.01822  7.56005  7.60638
 H  19.52429  7.83214  6.47802
 H  19.41137  6.61856  7.92248
 H  19.08559  9.78557  7.90644
 H  20.18295  9.14563  9.29502
 H  18.03559  7.30561  9.71354
 H  17.97610  9.04201  10.43045
 H  -20.34351  -8.55929  -6.56110
 H  -17.17821  -10.42628  -3.75382
 H  15.19251  2.96466  4.53543
 H  12.45861  6.16001  6.45923
*
