# ================================================================
# Orca input file made by Matty Jones
# ================================================================
! ZINDO/S 
! NOPOP
! NOMOPRINT
* xyz 0   1
 C  -19.71155  -1.65964  2.31832
 C  -18.51261  -0.96341  2.47862
 C  -17.68951  -1.45468  3.53949
 C  -18.24130  -2.54432  4.22032
 S  -19.69804  -2.83845  3.48422
 H  -18.32178  0.02458  1.94177
 C  -16.28704  -0.68758  3.75513
 C  -15.56231  -0.32896  2.24496
 C  -14.13150  0.54476  2.05179
 H  -13.98157  1.13701  3.03912
 H  -14.33466  1.31255  1.20452
 H  -15.38318  -1.35612  1.74644
 H  -16.33012  0.26179  1.61863
 H  -16.45540  0.31086  4.31641
 H  -15.54314  -1.34271  4.35709
 C  -12.74868  -0.23426  1.70953
 C  -11.48653  0.85989  1.42151
 C  -10.65893  1.27307  2.82286
 H  -10.04519  2.23623  2.63732
 H  -9.94744  0.40766  3.11269
 H  -11.41769  1.45513  3.67790
 H  -10.74835  0.37876  0.68037
 H  -11.92519  1.81970  0.95808
 H  -12.88428  -0.87088  0.75413
 H  -12.44524  -0.92449  2.58272
 C  19.73235  0.90464  -4.58849
 C  18.46507  0.37615  -4.33833
 C  17.64408  1.19766  -3.50444
 C  18.26623  2.38080  -3.09406
 S  19.77810  2.34866  -3.77498
 H  18.10277  -0.62410  -4.75044
 C  16.16394  0.63384  -3.15501
 C  14.73334  1.55065  -3.07695
 C  13.34755  0.59683  -2.79541
 H  12.48436  1.11182  -3.37253
 H  13.54988  -0.43274  -3.28397
 H  14.60773  2.14309  -4.04912
 H  14.76945  2.23764  -2.16798
 H  16.21866  0.11154  -2.10503
 H  15.90778  -0.19989  -3.93593
 C  12.86975  0.35873  -1.25737
 C  11.53154  -0.67280  -1.11959
 C  11.95993  -2.28865  -0.92874
 H  12.51760  -2.65257  -1.87497
 H  11.00464  -2.92272  -0.77184
 H  12.65033  -2.39292  -0.00570
 H  10.89446  -0.57564  -2.07425
 H  10.91206  -0.34789  -0.20533
 H  13.73563  -0.09780  -0.64410
 H  12.57170  1.37190  -0.78580
 H  -20.47070  -1.47395  1.60221
 H  -17.81728  -3.07188  5.03609
 H  20.50308  0.47371  -5.17490
 H  17.85718  3.13939  -2.47695
*
