# ================================================================
# Orca input file made by Matty Jones
# ================================================================
! ZINDO/S 
! NOPOP
! NOMOPRINT
* xyz 0   1
 C  0.97078  7.28266  -1.40143
 C  0.53613  6.41407  -2.40369
 C  0.74594  5.03082  -2.10895
 C  1.34930  4.80603  -0.86768
 S  1.58807  6.30941  -0.20945
 H  0.77493  6.54481  -3.56303
 C  0.26910  3.99298  -3.25740
 C  -0.76755  2.62915  -3.19764
 C  -2.40919  3.00046  -3.49742
 H  -2.78519  3.51985  -2.53180
 H  -2.40980  3.78210  -4.35303
 H  -0.42015  1.87925  -3.99490
 H  -0.68857  2.16447  -2.15044
 H  1.25576  3.52946  -3.69498
 H  -0.20267  4.62439  -4.12634
 C  -3.49100  1.83448  -3.89135
 C  -3.76091  1.63556  -5.56087
 C  -4.94422  0.51514  -5.99595
 H  -5.99109  0.98123  -5.83489
 H  -4.83451  -0.43392  -5.34422
 H  -4.81315  0.23782  -7.11232
 H  -4.07161  2.65803  -5.99130
 H  -2.76713  1.30026  -6.03662
 H  -3.13359  0.81553  -3.48271
 H  -4.51388  2.09226  -3.41796
 C  3.60438  0.54754  2.73575
 C  3.20191  -0.78086  2.88162
 C  3.91172  -1.49812  3.89452
 C  4.87957  -0.73223  4.55179
 S  4.80716  0.77095  3.85490
 H  2.39031  -1.26984  2.24170
 C  3.69435  -3.04503  4.33286
 C  2.21675  -3.75543  4.76597
 C  1.28534  -4.43610  3.54815
 H  0.98219  -3.59558  2.81418
 H  1.93914  -5.20657  2.98748
 H  2.44705  -4.59049  5.52931
 H  1.58664  -2.93734  5.28193
 H  4.06917  -3.70654  3.44145
 H  4.37420  -3.30429  5.23648
 C  -0.04877  -5.17201  4.12501
 C  -0.99563  -5.80420  2.88071
 C  -2.00784  -4.62880  2.22992
 H  -3.01485  -5.11180  1.92859
 H  -1.49974  -4.17164  1.29527
 H  -2.19604  -3.79589  3.01105
 H  -0.31030  -6.21574  2.05320
 H  -1.64377  -6.65478  3.30853
 H  0.26000  -6.05123  4.81173
 H  -0.68382  -4.42840  4.73844
 H  0.91748  8.34132  -1.40212
 H  1.60130  3.87059  -0.43752
 H  3.22178  1.26279  2.05337
 H  5.52449  -1.04658  5.33208
*
