# ================================================================
# Orca input file made by Matty Jones
# ================================================================
! ZINDO/S 
! NOPOP
! NOMOPRINT
* xyz 0   1
 C  -12.67976  19.36816  23.13875
 C  -12.12514  18.50156  22.19574
 C  -10.98110  17.78340  22.66443
 C  -10.63057  18.08445  23.98421
 S  -11.73900  19.20754  24.49459
 H  -12.41891  18.66214  21.10564
 C  -10.37400  16.77832  21.54148
 C  -11.57838  16.49628  20.28863
 C  -12.95533  15.49282  20.38149
 H  -12.59229  14.41799  20.15646
 H  -13.28907  15.54103  21.49083
 H  -10.91215  15.88959  19.53483
 H  -11.84709  17.45562  19.71927
 H  -10.11187  15.75249  22.00228
 H  -9.44511  17.23907  21.03265
 C  -14.29142  15.77613  19.45879
 C  -14.52820  17.16541  18.50202
 C  -16.00810  17.20333  17.67705
 H  -16.78302  16.55470  18.23963
 H  -15.85910  16.78968  16.60681
 H  -16.38639  18.29562  17.62008
 H  -13.68336  17.21543  17.72361
 H  -14.48381  18.08540  19.19162
 H  -14.39196  14.88728  18.72005
 H  -15.20750  15.75238  20.17178
 C  14.61027  -13.00061  -23.49455
 C  13.82945  -13.92964  -22.80526
 C  14.58327  -14.86580  -22.03092
 C  15.96632  -14.67503  -22.10917
 S  16.18067  -13.37637  -23.11810
 H  12.68767  -13.93184  -22.81889
 C  13.96224  -16.08532  -21.14459
 C  12.70516  -16.02575  -19.97121
 C  12.36818  -17.52490  -19.18386
 H  12.29290  -17.25435  -18.05883
 H  13.32838  -18.15695  -19.34044
 H  11.74331  -15.69467  -20.50328
 H  12.99979  -15.26510  -19.16552
 H  14.84682  -16.57551  -20.55336
 H  13.56423  -16.89016  -21.89848
 C  11.09974  -18.49908  -19.52999
 C  11.04526  -19.99195  -18.70652
 C  11.65428  -21.29863  -19.58090
 H  12.77729  -21.12986  -19.79640
 H  11.07341  -21.38497  -20.57919
 H  11.51415  -22.27074  -18.96893
 H  11.66815  -19.89074  -17.74227
 H  9.94942  -20.21716  -18.43517
 H  11.08822  -18.73081  -20.66055
 H  10.12261  -17.94468  -19.25182
 H  -13.52433  19.99652  23.01440
 H  -9.82505  17.67959  24.54173
 H  14.27088  -12.21949  -24.12564
 H  16.71994  -15.24180  -21.62498
*
