# ================================================================
# Orca input file made by Matty Jones
# ================================================================
! ZINDO/S 
! NOPOP
! NOMOPRINT
* xyz 0   1
 C  -13.18152  -4.33430  -11.94684
 C  -13.67733  -5.52799  -12.47331
 C  -13.08506  -6.70317  -11.91435
 C  -12.11670  -6.43608  -10.94159
 S  -12.04525  -4.78323  -10.82592
 H  -14.42585  -5.59547  -13.33421
 C  -13.54101  -8.18373  -12.39711
 C  -15.19950  -8.67061  -12.29605
 C  -16.67722  -8.66768  -13.19581
 H  -17.15890  -9.68680  -12.89888
 H  -17.29286  -7.83213  -12.66534
 H  -15.07156  -9.80980  -12.09359
 H  -15.52423  -8.15922  -11.30652
 H  -12.93581  -9.01023  -11.85039
 H  -13.29403  -8.28406  -13.53702
 C  -16.98877  -8.48502  -14.78957
 C  -17.19461  -9.92424  -15.67149
 C  -18.75383  -10.57583  -15.68001
 H  -18.83576  -11.37029  -14.84186
 H  -18.95497  -11.07503  -16.70489
 H  -19.52964  -9.73821  -15.49753
 H  -16.91118  -9.69870  -16.76621
 H  -16.47678  -10.71447  -15.24200
 H  -17.96329  -7.87289  -14.91641
 H  -16.11986  -7.90381  -15.28140
 C  19.83820  8.61712  12.06106
 C  18.49482  8.80936  12.38708
 C  18.26770  9.12938  13.76195
 C  19.43763  9.19015  14.52542
 S  20.67411  8.84952  13.47398
 H  17.64504  8.72085  11.62974
 C  16.90631  9.43956  14.61389
 C  15.39586  8.67662  15.01153
 C  13.80516  8.57448  14.41046
 H  13.12784  8.87419  15.31011
 H  13.72720  9.42336  13.62294
 H  15.71541  7.56176  15.07245
 H  15.22296  9.06139  16.09474
 H  16.48169  10.43247  14.12335
 H  17.26614  9.74607  15.68856
 C  13.15219  7.23201  13.76630
 C  13.15726  7.15613  12.08859
 C  11.94701  6.13355  11.51793
 H  11.96859  5.13618  12.10225
 H  12.11185  5.93602  10.39055
 H  10.92105  6.65025  11.67242
 H  12.99042  8.21013  11.65859
 H  14.17695  6.74767  11.74184
 H  13.73262  6.30592  14.15447
 H  12.05250  7.13750  14.11930
 H  -13.47045  -3.34856  -12.20845
 H  -11.54748  -7.14221  -10.39299
 H  20.23946  8.37384  11.11058
 H  19.51748  9.40826  15.55966
*
