# ================================================================
# Orca input file made by Matty Jones
# ================================================================
! ZINDO/S 
! NOPOP
! NOMOPRINT
* xyz 0   1
 C  19.71442  9.92686  -6.15479
 C  19.03020  8.71425  -6.25129
 C  19.60900  7.65470  -5.48538
 C  20.75605  8.03258  -4.78053
 S  20.99044  9.63519  -5.13705
 H  17.95639  8.69262  -6.63082
 C  18.93114  6.22123  -5.52230
 C  17.24872  6.28300  -5.31306
 C  16.58692  6.47404  -6.84958
 H  15.62023  7.09498  -6.75423
 H  17.33766  7.02915  -7.52881
 H  16.87736  5.31444  -4.82478
 H  16.97226  7.18937  -4.65960
 H  19.28030  5.50470  -4.69365
 H  19.16291  5.70554  -6.54931
 C  16.30080  5.04269  -7.56488
 C  15.84757  5.13937  -9.18807
 C  15.79836  6.68321  -9.85832
 H  15.51605  6.59664  -10.97812
 H  16.83644  7.18492  -9.76418
 H  15.00443  7.31820  -9.30644
 H  16.60332  4.51672  -9.79763
 H  14.79721  4.67539  -9.28920
 H  17.25077  4.38443  -7.50457
 H  15.44497  4.50664  -6.99754
 C  -12.56277  -6.48794  5.11403
 C  -13.83976  -7.01388  5.31547
 C  -14.68172  -6.20345  6.13924
 C  -14.06645  -5.03166  6.59054
 S  -12.53465  -5.05959  5.95553
 H  -14.19933  -7.99473  4.85242
 C  -16.16342  -6.77876  6.43976
 C  -17.58005  -5.83602  6.47043
 C  -18.94537  -6.82700  6.69954
 H  -19.83173  -6.28888  6.18504
 H  -18.74685  -7.81975  6.13871
 H  -17.68252  -5.27503  5.47501
 H  -17.57303  -5.11108  7.34886
 H  -16.15286  -7.30980  7.48497
 H  -16.39709  -7.59764  5.64120
 C  -19.35391  -7.15262  8.23963
 C  -20.68615  -8.19063  8.36221
 C  -22.17085  -7.40187  8.39395
 H  -22.97722  -8.12626  8.79977
 H  -22.45119  -7.07136  7.32091
 H  -22.09998  -6.47447  9.08192
 H  -20.57785  -8.79885  9.33507
 H  -20.67519  -8.90559  7.45869
 H  -18.46538  -7.66129  8.77747
 H  -19.61262  -6.17198  8.79325
 H  19.46988  10.84143  -6.63160
 H  21.35115  7.42244  -4.15030
 H  -11.77665  -6.91219  4.54339
 H  -14.49035  -4.28241  7.20903
*
