# ================================================================
# Orca input file made by Matty Jones
# ================================================================
! ZINDO/S 
! NOPOP
! NOMOPRINT
* xyz 0   1
 C  -23.23909  3.21165  2.50642
 C  -21.98970  3.83034  2.44216
 C  -21.00838  3.25575  3.30883
 C  -21.48530  2.17790  4.06124
 S  -23.07371  1.99512  3.62078
 H  -21.81606  4.81941  1.91212
 C  -19.55345  3.94695  3.26836
 C  -18.97493  4.30072  1.67766
 C  -19.27088  5.74865  0.78424
 H  -19.37247  6.57340  1.59218
 H  -18.29040  5.93566  0.19443
 H  -17.82615  4.23496  1.75919
 H  -19.36128  3.44797  1.00590
 H  -19.55501  4.94325  3.86273
 H  -18.76568  3.23160  3.73548
 C  -20.50975  5.94514  -0.26915
 C  -20.44570  7.36447  -1.21122
 C  -19.87272  7.30036  -2.79545
 H  -20.52262  6.56645  -3.40934
 H  -18.77185  6.94822  -2.79518
 H  -19.94175  8.35900  -3.26151
 H  -21.49209  7.83288  -1.23325
 H  -19.69805  8.03898  -0.65992
 H  -20.54241  5.04945  -0.99622
 H  -21.51335  6.01678  0.29234
 C  25.16781  -3.87773  -2.63402
 C  24.09030  -4.67843  -2.25223
 C  23.03885  -3.96737  -1.59411
 C  23.28736  -2.59830  -1.45554
 S  24.77402  -2.34321  -2.14488
 H  24.04938  -5.79879  -2.47217
 C  21.82106  -4.96194  -1.18176
 C  20.17186  -4.78735  -1.52642
 C  19.07787  -4.06212  -0.48206
 H  19.62528  -3.23585  0.10847
 H  18.23179  -3.58653  -1.10786
 H  20.12767  -4.18044  -2.51401
 H  19.77453  -5.85089  -1.74228
 H  21.84014  -5.03896  -0.00448
 H  22.06516  -6.03644  -1.57490
 C  18.45099  -5.16069  0.55595
 C  17.12513  -6.09140  0.05047
 C  17.47373  -7.63276  -0.53625
 H  16.48484  -8.22576  -0.64854
 H  18.16552  -8.17970  0.21309
 H  17.99595  -7.55071  -1.56394
 H  16.58670  -5.51197  -0.78778
 H  16.41622  -6.21048  0.95159
 H  19.28513  -5.90895  0.85080
 H  18.11131  -4.60237  1.51218
 H  -24.11007  3.46588  1.95836
 H  -20.94477  1.59890  4.76564
 H  26.05157  -4.18571  -3.13175
 H  22.65743  -1.87496  -1.00436
*
