# ================================================================
# Orca input file made by Matty Jones
# ================================================================
! ZINDO/S 
! NOPOP
! NOMOPRINT
* xyz 0   1
 C  -22.10106  1.19355  4.62551
 C  -20.90212  1.88978  4.78581
 C  -20.07902  1.39851  5.84668
 C  -20.63081  0.30886  6.52750
 S  -22.08755  0.01474  5.79141
 H  -20.71129  2.87777  4.24896
 C  -18.67655  2.16561  6.06232
 C  -17.95182  2.52423  4.55215
 C  -16.52102  3.39795  4.35897
 H  -16.37109  3.99019  5.34630
 H  -16.72417  4.16573  3.51170
 H  -17.77269  1.49706  4.05363
 H  -18.71963  3.11498  3.92582
 H  -18.84491  3.16405  6.62359
 H  -17.93266  1.51048  6.66428
 C  -15.13819  2.61892  4.01672
 C  -13.87604  3.71308  3.72869
 C  -13.04844  4.12626  5.13004
 H  -12.43470  5.08942  4.94451
 H  -12.33696  3.26085  5.41988
 H  -13.80721  4.30832  5.98509
 H  -13.13786  3.23195  2.98756
 H  -14.31470  4.67289  3.26527
 H  -15.27379  1.98230  3.06132
 H  -14.83475  1.92870  4.88991
 C  22.08600  -1.57927  -6.45390
 C  20.93456  -2.34002  -6.24567
 C  19.89299  -1.64561  -5.55488
 C  20.22364  -0.32990  -5.21593
 S  21.76561  -0.09826  -5.78082
 H  20.87981  -3.45585  -6.47444
 C  18.57167  -2.55795  -5.33338
 C  16.94236  -2.11327  -5.41150
 C  16.26149  -1.75832  -3.91752
 H  17.07090  -1.29788  -3.23537
 H  15.41320  -0.99213  -4.07284
 H  16.85894  -1.17584  -6.07863
 H  16.34998  -2.97604  -5.89510
 H  18.66683  -3.04138  -4.26697
 H  18.62441  -3.44292  -6.09994
 C  15.67650  -3.13043  -3.24583
 C  14.07472  -3.52633  -3.62738
 C  13.84524  -4.49454  -4.98693
 H  13.07551  -5.32291  -4.73693
 H  14.84764  -4.98025  -5.29778
 H  13.44179  -3.84397  -5.85504
 H  13.49438  -2.54370  -3.78772
 H  13.63279  -4.08639  -2.72063
 H  16.33367  -4.02545  -3.57212
 H  15.73806  -3.03638  -2.09422
 H  -22.86021  1.37923  3.90939
 H  -20.20679  -0.21869  7.34328
 H  22.97737  -1.88405  -6.93988
 H  19.61597  0.37238  -4.70492
*
