# ================================================================
# Orca input file made by Matty Jones
# ================================================================
! ZINDO/S 
! NOPOP
! NOMOPRINT
* xyz 0   1
 C  -1.48265  2.10018  -1.02973
 C  -1.88831  0.76538  -0.98929
 C  -1.19913  -0.02511  -0.01749
 C  -0.24446  0.68910  0.71314
 S  -0.30249  2.23925  0.12655
 H  -2.71538  0.33261  -1.64428
 C  -1.39979  -1.59529  0.31131
 C  -2.86150  -2.32140  0.76913
 C  -3.91025  -2.94576  -0.38150
 H  -4.28749  -2.07219  -1.03704
 H  -3.31968  -3.68694  -1.04305
 H  -2.58874  -3.18729  1.48400
 H  -3.44902  -1.52167  1.36431
 H  -0.64124  -1.94106  1.12812
 H  -1.10105  -2.18699  -0.66274
 C  -5.17789  -3.70738  0.30595
 C  -6.21324  -4.39824  -0.83217
 C  -7.32860  -3.28682  -1.41975
 H  -8.31418  -3.83347  -1.68229
 H  -6.89606  -2.78655  -2.37019
 H  -7.53596  -2.47793  -0.61842
 H  -5.58869  -4.80658  -1.70872
 H  -6.78473  -5.26230  -0.32781
 H  -4.79135  -4.55874  0.98804
 H  -5.78230  -2.96319  0.95062
 C  0.29561  -0.16866  2.55164
 C  1.48855  0.07039  1.86779
 C  2.65468  -0.40663  2.54369
 C  2.38118  -1.02549  3.76742
 S  0.73409  -0.95094  3.94623
 H  1.69932  1.18404  1.51514
 C  4.07033  -0.14287  1.77959
 C  4.03397  1.43143  1.01693
 C  4.99826  2.49298  0.05479
 H  5.44265  3.29880  0.74605
 H  5.83686  1.88722  -0.44188
 H  3.20209  1.21757  0.23234
 H  3.66545  2.12001  1.86389
 H  4.95211  -0.13611  2.52929
 H  4.25761  -0.93163  0.96041
 C  4.02260  3.19271  -1.06777
 C  4.46814  4.56970  -1.95719
 C  5.17370  4.44858  -3.48062
 H  5.34902  5.51781  -3.89433
 H  4.46384  3.87470  -4.19143
 H  6.18470  3.89526  -3.39684
 H  3.49005  5.15320  -2.11215
 H  5.19138  5.17208  -1.29351
 H  3.79592  2.38151  -1.86741
 H  3.02263  3.46956  -0.54857
 H  -1.85130  2.86399  -1.66558
 H  0.38462  0.31752  1.48112
 H  -0.68414  0.09441  2.24426
 H  3.08023  -1.45280  4.43998
*
