# ================================================================
# Orca input file made by Matty Jones
# ================================================================
! ZINDO/S 
! NOPOP
! NOMOPRINT
* xyz 0   1
 C  -21.40611  6.69622  -8.65980
 C  -22.05838  5.47105  -8.80608
 C  -21.46490  4.40158  -8.06563
 C  -20.33831  4.78419  -7.33097
 S  -20.13861  6.40282  -7.63196
 H  -23.15949  5.45616  -9.09843
 C  -22.17174  2.96085  -8.19012
 C  -23.85729  2.99790  -8.02635
 C  -24.52327  3.24912  -9.55267
 H  -25.62005  3.58658  -9.41522
 H  -23.96490  4.03719  -10.17644
 H  -24.23206  2.00535  -7.58669
 H  -24.15002  3.86915  -7.33382
 H  -21.87290  2.11026  -7.46870
 H  -21.92974  2.55037  -9.26075
 C  -24.44577  1.84962  -10.37748
 C  -25.11750  1.97401  -11.91048
 C  -26.73890  1.54275  -11.86916
 H  -27.34790  2.27633  -12.52453
 H  -27.13055  1.58484  -10.78040
 H  -26.85213  0.46548  -12.27738
 H  -25.02418  3.06118  -12.28066
 H  -24.55187  1.27126  -12.62680
 H  -23.34449  1.52490  -10.51646
 H  -24.99745  1.01933  -9.79065
 C  27.69550  -3.50266  7.00851
 C  26.80269  -4.48845  7.43159
 C  25.74411  -4.00087  8.25980
 C  25.80132  -2.62312  8.49186
 S  27.13982  -2.08825  7.67165
 H  27.01364  -5.58547  7.78544
 C  24.66302  -5.08520  8.77483
 C  23.03269  -4.87317  9.20363
 C  22.26954  -3.40302  9.52045
 H  22.84133  -2.53728  9.02544
 H  21.18934  -3.43676  9.11858
 H  22.43117  -5.32337  8.31754
 H  22.86389  -5.55672  10.12219
 H  25.12198  -5.59326  9.72680
 H  24.60048  -5.92323  7.95427
 C  22.28102  -3.28493  11.14556
 C  21.56944  -1.94209  11.83419
 C  20.80788  -0.86597  10.79513
 H  20.26613  -1.45787  9.95996
 H  21.60126  -0.16855  10.32127
 H  20.02683  -0.22760  11.35702
 H  20.86111  -2.32706  12.64603
 H  22.44335  -1.42566  12.34333
 H  21.71889  -4.20509  11.58206
 H  23.37732  -3.33768  11.51881
 H  -21.66620  7.61960  -9.11073
 H  -19.73770  4.16857  -6.71140
 H  28.54889  -3.63112  6.39301
 H  25.12978  -2.04221  9.07081
*
