# ================================================================
# Orca input file made by Matty Jones
# ================================================================
! ZINDO/S 
! NOPOP
! NOMOPRINT
* xyz 0   1
 C  24.47720  -4.95282  -3.55431
 C  25.67013  -4.71376  -4.23816
 C  26.83627  -5.19078  -3.56226
 C  26.56277  -5.80964  -2.33853
 S  24.91568  -5.73509  -2.15972
 H  25.88090  -3.60011  -4.59081
 C  28.25191  -4.92702  -4.32636
 C  28.21555  -3.35272  -5.08902
 C  29.17984  -2.29118  -6.05116
 H  29.62424  -1.48536  -5.35990
 H  30.01845  -2.89694  -6.54783
 H  27.38368  -3.56659  -5.87361
 H  27.84704  -2.66414  -4.24206
 H  29.13370  -4.92026  -3.57666
 H  28.43920  -5.71579  -5.14554
 C  28.20419  -1.59144  -7.17372
 C  28.64973  -0.21445  -8.06314
 C  29.35528  -0.33557  -9.58657
 H  29.53061  0.73365  -10.00028
 H  28.64543  -0.90945  -10.29738
 H  30.36628  -0.88889  -9.50279
 H  27.67164  0.36905  -8.21810
 H  29.37297  0.38793  -7.39946
 H  27.97751  -2.40264  -7.97336
 H  27.20421  -1.31459  -6.65452
 C  -24.19627  4.94849  4.28325
 C  -25.06866  4.32933  5.17961
 C  -25.77044  5.23707  6.03271
 C  -25.45058  6.57979  5.80884
 S  -24.33204  6.57328  4.58440
 H  -24.68118  3.36934  5.72392
 C  -26.83010  4.66944  7.11914
 C  -27.97499  3.65754  6.32127
 C  -29.31877  2.69769  6.77045
 H  -29.60799  3.01524  7.84411
 H  -30.18456  2.97195  6.05501
 H  -27.27119  2.88281  5.86265
 H  -28.40695  4.35444  5.50489
 H  -27.41962  5.53034  7.62390
 H  -26.29488  4.04033  7.93349
 C  -29.09422  1.07938  6.73804
 C  -29.28338  0.35968  5.20278
 C  -30.77816  -0.22972  4.70522
 H  -30.63292  -1.27029  4.21765
 H  -31.23216  0.49650  3.92556
 H  -31.48581  -0.32003  5.61396
 H  -28.54106  -0.52179  5.15205
 H  -29.00270  1.15993  4.42216
 H  -29.86392  0.57396  7.43679
 H  -28.03255  0.82679  7.11336
 H  23.49745  -4.68974  -3.86169
 H  27.26182  -6.23695  -1.66597
 H  -23.57739  4.47899  3.56202
 H  -25.84123  7.42486  6.31564
*
