# ================================================================
# Orca input file made by Matty Jones
# ================================================================
! ZINDO/S 
! NOPOP
! NOMOPRINT
* xyz 0   1
 C  -1.63583  1.90322  -0.94941
 C  -2.03830  0.57482  -0.80354
 C  -1.32849  -0.14243  0.20936
 C  -0.36064  0.62346  0.86663
 S  -0.43305  2.12664  0.16974
 H  -2.84990  0.08585  -1.44346
 C  -1.54585  -1.68935  0.64770
 C  -3.02346  -2.39975  1.08081
 C  -3.95486  -3.08041  -0.13702
 H  -4.25802  -2.23989  -0.87098
 H  -3.30107  -3.85088  -0.69768
 H  -2.79316  -3.23480  1.84415
 H  -3.65357  -1.58165  1.59677
 H  -1.17104  -2.35086  -0.24371
 H  -0.86600  -1.94861  1.55132
 C  -5.28898  -3.81633  0.43985
 C  -6.23584  -4.44851  -0.80445
 C  -7.24805  -3.27311  -1.45525
 H  -8.25506  -3.75611  -1.75657
 H  -6.73995  -2.81596  -2.38990
 H  -7.43625  -2.44020  -0.67411
 H  -5.55050  -4.86005  -1.63196
 H  -6.88398  -5.29910  -0.37663
 H  -4.98021  -4.69554  1.12657
 H  -5.92403  -3.07272  1.05327
 C  0.89983  0.14972  1.78033
 C  2.14923  0.76841  1.71608
 C  3.13055  0.19382  2.58275
 C  2.65362  -0.88403  3.33515
 S  1.06522  -1.06681  2.89470
 H  2.32287  1.75748  1.18604
 C  4.58548  0.88502  2.54227
 C  5.16399  1.23880  0.95158
 C  4.86805  2.68672  0.05816
 H  4.76645  3.51147  0.86610
 H  5.84853  2.87373  -0.53165
 H  6.31277  1.17303  1.03311
 H  4.77764  0.38604  0.27982
 H  4.58392  1.88132  3.13664
 H  5.37324  0.16967  3.00939
 C  3.62917  2.88321  -0.99523
 C  3.69323  4.30254  -1.93730
 C  4.26621  4.23843  -3.52153
 H  3.61631  3.50452  -4.13542
 H  5.36707  3.88629  -3.52126
 H  4.19718  5.29707  -3.98760
 H  2.64684  4.77095  -1.95933
 H  4.44088  4.97705  -1.38601
 H  3.59651  1.98752  -1.72230
 H  2.62558  2.95485  -0.43375
 H  -2.01843  2.61847  -1.63179
 H  3.19415  -1.46303  4.03955
*
