# ================================================================
# Orca input file made by Matty Jones
# ================================================================
! ZINDO/S 
! NOPOP
! NOMOPRINT
* xyz 0   1
 C  21.04892  0.78388  2.48190
 C  20.31912  -0.34789  2.84852
 C  20.95500  -1.15618  3.84179
 C  22.19316  -0.66016  4.26161
 S  22.43262  0.73278  3.39397
 H  19.39279  -0.71388  2.28702
 C  20.30195  -2.51802  4.42949
 C  19.31356  -3.61736  3.55169
 C  17.64791  -3.34188  3.84083
 H  17.47471  -3.68489  4.93553
 H  17.48304  -2.19843  3.78706
 H  19.57622  -4.69589  3.83566
 H  19.49958  -3.44095  2.43059
 H  19.67594  -2.23970  5.36898
 H  21.18099  -3.20591  4.78685
 C  16.53047  -4.09305  2.91108
 C  15.82994  -5.63318  3.13442
 C  16.14058  -6.58413  4.48406
 H  15.73612  -6.05379  5.42915
 H  17.27855  -6.76116  4.58519
 H  15.60084  -7.60227  4.35546
 H  16.16286  -6.25894  2.21878
 H  14.68497  -5.48704  3.08397
 H  15.60614  -3.38128  2.90397
 H  16.95810  -4.11683  1.83233
 C  -20.45030  -1.53585  -3.36459
 C  -19.68477  -0.36891  -3.35371
 C  -20.27003  0.70644  -2.61523
 C  -21.50392  0.38701  -2.04008
 S  -21.80165  -1.18696  -2.46947
 H  -18.65904  -0.26405  -3.84277
 C  -19.34364  2.04420  -2.64911
 C  -19.76305  3.66233  -2.93070
 C  -18.32125  4.58992  -3.01075
 H  -18.58039  5.66867  -2.69548
 H  -17.55886  4.14759  -2.26768
 H  -20.32364  3.74306  -3.92879
 H  -20.40439  4.05223  -2.06620
 H  -18.80708  2.08478  -1.61094
 H  -18.49179  1.87032  -3.44351
 C  -17.68618  4.59328  -4.51977
 C  -16.20185  5.36689  -4.79010
 C  -16.29243  6.98105  -5.25408
 H  -17.27444  7.16479  -5.83745
 H  -15.38835  7.23434  -5.93213
 H  -16.26831  7.65187  -4.31152
 H  -15.58301  5.30268  -3.82083
 H  -15.65797  4.79198  -5.63030
 H  -17.53851  3.49505  -4.85818
 H  -18.45104  5.09150  -5.23356
 H  20.77611  1.52073  1.77041
 H  22.84270  -1.08542  4.98330
 H  -20.21699  -2.45199  -3.84401
 H  -22.11999  1.01865  -1.45262
*
