# ================================================================
# Orca input file made by Matty Jones
# ================================================================
! ZINDO/S 
! NOPOP
! NOMOPRINT
* xyz 0   1
 C  -11.83874  -30.88964  -9.54418
 C  -11.47739  -32.05934  -10.21434
 C  -10.17469  -32.54487  -9.88042
 C  -9.50401  -31.75458  -8.94183
 S  -10.54348  -30.51412  -8.57961
 H  -12.29773  -32.82636  -10.48420
 C  -9.80002  -33.88764  -10.69810
 C  -10.36721  -33.86107  -12.36273
 C  -11.28423  -32.57105  -13.06437
 H  -12.21385  -32.38916  -12.40686
 H  -10.59205  -31.64773  -13.01857
 H  -9.42023  -33.95154  -13.00813
 H  -11.01741  -34.80144  -12.47822
 H  -10.29772  -34.81041  -10.20265
 H  -8.65467  -34.04155  -10.73409
 C  -11.96502  -32.63945  -14.55620
 C  -13.60996  -33.08697  -14.56040
 C  -14.73798  -31.83272  -14.46275
 H  -14.31997  -30.98641  -13.79507
 H  -15.72022  -32.24019  -14.00464
 H  -14.94873  -31.42481  -15.52480
 H  -13.78734  -33.78969  -13.66510
 H  -13.81061  -33.65645  -15.54229
 H  -11.89646  -31.59932  -15.05418
 H  -11.39730  -33.40585  -15.20413
 C  6.83124  31.41066  13.16469
 C  8.09050  31.54582  12.57827
 C  9.17143  31.12018  13.41175
 C  8.76364  30.64653  14.66262
 S  7.11040  30.77746  14.67142
 H  8.44567  32.52047  12.02537
 C  10.68945  31.21475  12.86282
 C  11.10321  32.71582  12.15198
 C  12.63346  32.99992  11.46071
 H  12.45942  33.74393  10.58947
 H  12.98619  31.99158  11.01543
 H  10.35902  32.89885  11.29141
 H  10.95435  33.51301  12.97126
 H  11.44354  31.04029  13.73160
 H  10.86948  30.40170  12.05324
 C  13.80297  33.59336  12.42211
 C  15.27676  34.02128  11.69323
 C  15.38899  33.91161  10.01766
 H  15.21075  32.81766  9.68833
 H  16.44761  34.24762  9.68851
 H  14.59826  34.60245  9.53217
 H  15.50067  35.11525  11.98362
 H  16.09132  33.33661  12.13909
 H  14.05084  32.80665  13.23486
 H  13.40558  34.54732  12.94525
 H  -12.74925  -30.35423  -9.63309
 H  -8.53426  -31.91480  -8.54495
 H  5.89400  31.66020  12.73700
 H  9.38178  30.28044  15.44204
*
