# ================================================================
# Orca input file made by Matty Jones
# ================================================================
! ZINDO/S 
! NOPOP
! NOMOPRINT
* xyz 0   1
 C  -20.09183  -8.04895  0.48489
 C  -18.89288  -7.35272  0.64519
 C  -18.06978  -7.84398  1.70606
 C  -18.62157  -8.93363  2.38688
 S  -20.07831  -9.22775  1.65079
 H  -18.70205  -6.36473  0.10834
 C  -16.66732  -7.07689  1.92170
 C  -15.94258  -6.71826  0.41153
 C  -14.51178  -5.84455  0.21835
 H  -14.36185  -5.25230  1.20569
 H  -14.71494  -5.07676  -0.62891
 H  -15.76346  -7.74543  -0.08699
 H  -16.71039  -6.12752  -0.21480
 H  -16.83568  -6.07845  2.48297
 H  -15.92342  -7.73202  2.52366
 C  -13.12895  -6.62357  -0.12390
 C  -11.86680  -5.52942  -0.41192
 C  -11.03920  -5.11624  0.98942
 H  -10.42546  -4.15308  0.80389
 H  -10.32772  -5.98165  1.27926
 H  -11.79797  -4.93418  1.84447
 H  -11.12863  -6.01055  -1.15306
 H  -12.30546  -4.56960  -0.87535
 H  -13.26455  -7.26019  -1.07930
 H  -12.82551  -7.31380  0.74929
 C  13.14927  2.97501  0.74964
 C  13.24119  4.19724  0.08212
 C  12.81495  5.31986  0.85820
 C  12.38428  4.98238  2.14504
 S  12.55119  3.33592  2.25335
 H  13.17933  4.22453  -1.07374
 C  12.93540  6.74927  0.10494
 C  14.40973  6.70629  -0.82420
 C  15.28540  7.75041  -1.85638
 H  14.65403  8.70492  -2.00062
 H  15.38333  7.21148  -2.87655
 H  15.18598  6.35976  -0.04116
 H  14.20730  5.84729  -1.57314
 H  12.05016  6.91526  -0.61954
 H  13.00685  7.62258  0.85684
 C  16.77294  8.14003  -1.31671
 C  17.92530  8.27099  -2.55498
 C  19.49262  8.53959  -2.00386
 H  19.45773  9.09828  -0.99152
 H  20.06961  9.17538  -2.77964
 H  20.02548  7.52073  -1.86575
 H  17.91933  7.28976  -3.15858
 H  17.62286  9.14782  -3.23717
 H  17.15872  7.33789  -0.58197
 H  16.73014  9.15915  -0.77303
 H  -20.85097  -7.86326  -0.23122
 H  -18.19755  -9.46119  3.20266
 H  13.40738  2.01784  0.37441
 H  12.02612  5.64100  2.89440
*
