# ================================================================
# Orca input file made by Matty Jones
# ================================================================
! ZINDO/S 
! NOPOP
! NOMOPRINT
* xyz 0   1
 C  20.59083  6.99534  0.04996
 C  20.18517  5.66054  0.09039
 C  20.87435  4.87005  1.06220
 C  21.82902  5.58426  1.79283
 S  21.77099  7.13441  1.20624
 H  19.35810  5.22777  -0.56459
 C  20.67369  3.29987  1.39100
 C  19.21198  2.57376  1.84881
 C  18.16323  1.94940  0.69819
 H  17.78599  2.82297  0.04264
 H  18.75380  1.20822  0.03664
 H  19.48474  1.70787  2.56369
 H  18.62446  3.37349  2.44400
 H  21.43224  2.95410  2.20780
 H  20.97243  2.70817  0.41694
 C  16.89559  1.18778  1.38564
 C  15.86024  0.49691  0.24752
 C  14.74488  1.60834  -0.34006
 H  13.75930  1.06169  -0.60260
 H  15.17742  2.10861  -1.29050
 H  14.53752  2.41723  0.46126
 H  16.48479  0.08858  -0.62904
 H  15.28875  -0.36714  0.75188
 H  17.28213  0.33642  2.06773
 H  16.29118  1.93197  2.03031
 C  -13.69212  -2.04615  -2.37011
 C  -14.84356  -2.80690  -2.16188
 C  -15.88512  -2.11249  -1.47109
 C  -15.55447  -0.79678  -1.13213
 S  -14.01251  -0.56514  -1.69703
 H  -14.89831  -3.92273  -2.39064
 C  -17.20644  -3.02483  -1.24958
 C  -18.83576  -2.58015  -1.32771
 C  -19.51662  -2.22520  0.16628
 H  -18.70722  -1.76476  0.84842
 H  -20.36492  -1.45901  0.01096
 H  -18.91918  -1.64272  -1.99484
 H  -19.42813  -3.44292  -1.81131
 H  -17.11129  -3.50826  -0.18317
 H  -17.15371  -3.90980  -2.01615
 C  -20.10162  -3.59731  0.83797
 C  -21.70339  -3.99320  0.45641
 C  -21.93288  -4.96142  -0.90314
 H  -22.70261  -5.78979  -0.65313
 H  -20.93047  -5.44713  -1.21398
 H  -22.33633  -4.31085  -1.77125
 H  -22.28374  -3.01058  0.29607
 H  -22.14532  -4.55327  1.36316
 H  -19.44445  -4.49233  0.51167
 H  -20.04006  -3.50326  1.98957
 H  20.22218  7.75915  -0.58589
 H  22.45810  5.21268  2.56081
 H  -12.80075  -2.35093  -2.85608
 H  -16.16215  -0.09450  -0.62112
*
