# ================================================================
# Orca input file made by Matty Jones
# ================================================================
! ZINDO/S 
! NOPOP
! NOMOPRINT
* xyz 0   1
 C  -13.43068  -11.50882  -7.37529
 C  -12.23775  -11.26976  -8.05914
 C  -11.07161  -11.74679  -7.38324
 C  -11.34511  -12.36565  -6.15951
 S  -12.99220  -12.29109  -5.98070
 H  -12.02698  -10.15612  -8.41180
 C  -9.65597  -11.48303  -8.14734
 C  -9.69233  -9.90872  -8.91000
 C  -8.72803  -8.84718  -9.87215
 H  -8.28364  -8.04136  -9.18088
 H  -7.88943  -9.45294  -10.36881
 H  -10.52420  -10.12259  -9.69459
 H  -10.06084  -9.22014  -8.06304
 H  -8.77418  -11.47626  -7.39764
 H  -9.46868  -12.27179  -8.96652
 C  -9.70369  -8.14744  -10.99471
 C  -9.25815  -6.77046  -11.88413
 C  -8.55259  -6.89157  -13.40756
 H  -8.37727  -5.82235  -13.82127
 H  -9.26245  -7.46545  -14.11837
 H  -7.54160  -7.44490  -13.32377
 H  -10.23624  -6.18695  -12.03908
 H  -8.53491  -6.16807  -11.22045
 H  -9.93037  -8.95865  -11.79434
 H  -10.70367  -7.87059  -10.47550
 C  14.48137  9.96503  8.30364
 C  13.13800  10.15727  8.62966
 C  12.91087  10.47730  10.00453
 C  14.08080  10.53806  10.76800
 S  15.31728  10.19743  9.71656
 H  12.28821  10.06877  7.87232
 C  11.54948  10.78747  10.85647
 C  10.03903  10.02453  11.25411
 C  8.44833  9.92240  10.65304
 H  7.77101  10.22211  11.55269
 H  8.37037  10.77127  9.86552
 H  10.35858  8.90967  11.31503
 H  9.86613  10.40930  12.33733
 H  11.12486  11.78038  10.36593
 H  11.90931  11.09398  11.93114
 C  7.79536  8.57993  10.00888
 C  7.80043  8.50404  8.33117
 C  6.59018  7.48146  7.76051
 H  6.61177  6.48410  8.34483
 H  6.75502  7.28393  6.63313
 H  5.56422  7.99816  7.91500
 H  7.63359  9.55804  7.90117
 H  8.82012  8.09558  7.98442
 H  8.37579  7.65383  10.39705
 H  6.69567  8.48541  10.36188
 H  -14.41043  -11.24575  -7.68267
 H  -10.64606  -12.79296  -5.48696
 H  14.88263  9.72175  7.35317
 H  14.16065  10.75618  11.80224
*
