# ================================================================
# Orca input file made by Matty Jones
# ================================================================
! ZINDO/S 
! NOPOP
! NOMOPRINT
* xyz 0   1
 C  -15.72488  -6.98553  -6.01174
 C  -16.45468  -8.11730  -5.64512
 C  -15.81880  -8.92559  -4.65185
 C  -14.58064  -8.42957  -4.23203
 S  -14.34118  -7.03663  -5.09967
 H  -17.38101  -8.48330  -6.20662
 C  -16.47185  -10.28744  -4.06415
 C  -17.46024  -11.38678  -4.94195
 C  -19.12589  -11.11129  -4.65281
 H  -19.29909  -11.45431  -3.55811
 H  -19.29076  -9.96785  -4.70658
 H  -17.19758  -12.46530  -4.65798
 H  -17.27422  -11.21036  -6.06305
 H  -17.09786  -10.00911  -3.12466
 H  -15.59281  -10.97533  -3.70679
 C  -20.24333  -11.86247  -5.58256
 C  -20.94386  -13.40259  -5.35922
 C  -20.63322  -14.35354  -4.00958
 H  -21.03768  -13.82320  -3.06449
 H  -19.49525  -14.53057  -3.90845
 H  -21.17296  -15.37169  -4.13818
 H  -20.61094  -14.02835  -6.27486
 H  -22.08883  -13.25646  -5.40967
 H  -21.16766  -11.15069  -5.58967
 H  -19.81570  -11.88624  -6.66131
 C  16.24542  7.70772  2.43508
 C  16.85750  8.43648  3.45594
 C  16.01519  9.42546  4.05318
 C  14.73152  9.47789  3.50113
 S  14.70661  8.31422  2.31974
 H  17.94072  8.28013  3.78365
 C  16.45210  10.43063  5.24075
 C  17.64040  11.54442  4.79723
 C  18.09428  12.70829  5.93737
 H  17.21238  12.80634  6.68440
 H  18.20173  13.71658  5.37805
 H  18.57938  10.95225  4.49169
 H  17.23536  12.11582  3.87789
 H  15.56164  10.98130  5.73730
 H  16.94095  9.79220  6.09472
 C  19.45054  12.39223  6.77075
 C  20.82066  12.83922  5.88189
 C  21.34502  11.58788  4.88489
 H  22.49967  11.52579  4.92660
 H  21.00575  11.79788  3.79825
 H  20.89283  10.58430  5.24271
 H  20.56704  13.75131  5.22667
 H  21.66441  13.11137  6.61525
 H  19.51705  11.27135  7.03376
 H  19.45755  13.00776  7.75068
 H  -15.99769  -6.24868  -6.72323
 H  -13.93110  -8.85483  -3.51034
 H  16.67397  6.93040  1.85566
 H  13.94006  10.12575  3.77946
*
