# ================================================================
# Orca input file made by Matty Jones
# ================================================================
! ZINDO/S 
! NOPOP
! NOMOPRINT
* xyz 0   1
 C  15.16440  8.75963  -3.95473
 C  14.48018  7.54702  -4.05124
 C  15.05898  6.48747  -3.28532
 C  16.20603  6.86535  -2.58047
 S  16.44042  8.46797  -2.93699
 H  13.40637  7.52539  -4.43076
 C  14.38112  5.05400  -3.32224
 C  12.69870  5.11577  -3.11300
 C  12.03690  5.30681  -4.64953
 H  11.07021  5.92775  -4.55418
 H  12.78763  5.86192  -5.32875
 H  12.32734  4.14721  -2.62472
 H  12.42224  6.02214  -2.45955
 H  14.73027  4.33747  -2.49360
 H  14.61289  4.53831  -4.34926
 C  11.75078  3.87546  -5.36483
 C  11.29755  3.97214  -6.98801
 C  11.24834  5.51598  -7.65827
 H  10.96603  5.42941  -8.77806
 H  12.28641  6.01769  -7.56413
 H  10.45441  6.15097  -7.10638
 H  12.05330  3.34949  -7.59758
 H  10.24719  3.50816  -7.08914
 H  12.70075  3.21720  -5.30452
 H  10.89495  3.33941  -4.79749
 C  -14.92443  -10.35475  5.02571
 C  -14.15890  -9.18781  5.03659
 C  -14.74416  -8.11246  5.77507
 C  -15.97805  -8.43189  6.35022
 S  -16.27578  -10.00586  5.92083
 H  -13.13317  -9.08296  4.54753
 C  -13.81777  -6.77470  5.74119
 C  -14.23718  -5.15658  5.45960
 C  -12.79538  -4.22898  5.37955
 H  -13.05451  -3.15024  5.69482
 H  -12.03298  -4.67131  6.12262
 H  -14.79777  -5.07585  4.46151
 H  -14.87852  -4.76668  6.32411
 H  -13.28121  -6.73412  6.77936
 H  -12.96592  -6.94858  4.94679
 C  -12.16031  -4.22562  3.87053
 C  -10.67598  -3.45201  3.60020
 C  -10.76656  -1.83786  3.13622
 H  -11.74857  -1.65411  2.55285
 H  -9.86248  -1.58457  2.45817
 H  -10.74243  -1.16703  4.07878
 H  -10.05714  -3.51623  4.56947
 H  -10.13210  -4.02693  2.76000
 H  -12.01264  -5.32386  3.53212
 H  -12.92517  -3.72740  3.15674
 H  14.91986  9.67420  -4.43154
 H  16.80113  6.25521  -1.95025
 H  -14.69111  -11.27090  4.54629
 H  -16.59412  -7.80026  6.93768
*
