# ================================================================
# Orca input file made by Matty Jones
# ================================================================
! ZINDO/S 
! NOPOP
! NOMOPRINT
* xyz 0   1
 C  9.30312  7.33019  0.03908
 C  10.52713  7.96788  0.24654
 C  11.43415  7.23548  1.07430
 C  10.92377  6.01329  1.52272
 S  9.39859  5.90469  0.88048
 H  11.20735  8.54096  -0.55095
 C  12.89858  7.83558  1.41496
 C  13.04506  9.39044  2.12078
 C  14.58304  10.12004  2.33441
 H  14.29818  11.24506  2.49392
 H  15.10660  10.04027  1.30637
 H  12.43092  10.10332  1.45810
 H  12.57022  9.31676  3.16680
 H  13.45572  7.11147  2.13118
 H  13.51876  7.88963  0.42705
 C  15.66725  9.80186  3.51279
 C  17.26297  10.21865  3.06306
 C  17.91700  11.72517  3.42872
 H  17.91598  11.87131  4.57576
 H  17.29562  12.55574  2.91964
 H  19.00812  11.76058  3.03823
 H  17.95938  9.44098  3.55526
 H  17.31957  10.12168  1.91400
 H  15.65382  8.67581  3.76395
 H  15.41302  10.40279  4.46621
 C  -16.20050  -12.72807  -5.07940
 C  -15.00786  -12.17249  -4.61375
 C  -15.18515  -11.02869  -3.77438
 C  -16.52456  -10.67933  -3.57624
 S  -17.40656  -11.78840  -4.43789
 H  -13.98319  -12.60423  -4.86611
 C  -13.79601  -10.39026  -3.23842
 C  -13.35867  -8.75724  -3.28047
 C  -13.82156  -7.84136  -1.94816
 H  -14.91070  -8.08530  -1.67263
 H  -13.73979  -6.72378  -2.23261
 H  -12.20767  -8.70578  -3.36365
 H  -13.82527  -8.29201  -4.22613
 H  -13.71346  -10.67446  -2.10332
 H  -12.90356  -10.92782  -3.77350
 C  -12.84835  -8.16920  -0.68398
 C  -13.19264  -7.32334  0.73040
 C  -12.20380  -5.98607  0.96710
 H  -12.55148  -5.11984  0.28483
 H  -11.11050  -6.27035  0.71182
 H  -12.26716  -5.66106  2.07626
 H  -14.28476  -6.95563  0.67530
 H  -13.07350  -8.03857  1.62549
 H  -11.75183  -7.94075  -0.97590
 H  -12.93048  -9.29619  -0.42915
 H  8.48499  7.68283  -0.53528
 H  11.40991  5.30460  2.14322
 H  -16.31180  -13.57267  -5.71018
 H  -16.89797  -9.87419  -2.99666
*
