# ================================================================
# Orca input file made by Matty Jones
# ================================================================
! ZINDO/S 
! NOPOP
! NOMOPRINT
* xyz 0   1
 C  -11.70340  -13.18041  -6.09194
 C  -10.50445  -12.48417  -5.93163
 C  -9.68135  -12.97544  -4.87077
 C  -10.23315  -14.06509  -4.18994
 S  -11.68989  -14.35921  -4.92603
 H  -10.31363  -11.49619  -6.46849
 C  -8.27889  -12.20834  -4.65513
 C  -7.55415  -11.84972  -6.16530
 C  -6.12335  -10.97601  -6.35847
 H  -5.97342  -10.38376  -5.37114
 H  -6.32651  -10.20822  -7.20574
 H  -7.37503  -12.87689  -6.66381
 H  -8.32196  -11.25898  -6.79163
 H  -8.44725  -11.20990  -4.09385
 H  -7.53499  -12.86348  -4.05316
 C  -4.74052  -11.75503  -6.70073
 C  -3.47837  -10.66087  -6.98875
 C  -2.65077  -10.24769  -5.58740
 H  -2.03703  -9.28453  -5.77294
 H  -1.93929  -11.11310  -5.29757
 H  -3.40954  -10.06564  -4.73235
 H  -2.74020  -11.14201  -7.72989
 H  -3.91704  -9.70106  -7.45218
 H  -4.87612  -12.39165  -7.65613
 H  -4.43709  -12.44526  -5.82754
 C  11.26729  12.29328  4.50902
 C  9.92392  12.48552  4.83504
 C  9.69679  12.80554  6.20991
 C  10.86673  12.86631  6.97338
 S  12.10320  12.52567  5.92194
 H  9.07414  12.39701  4.07770
 C  8.33541  13.11571  7.06185
 C  6.82496  12.35278  7.45949
 C  5.23426  12.25064  6.85842
 H  4.55694  12.55035  7.75807
 H  5.15629  13.09952  6.07090
 H  7.14450  11.23791  7.52041
 H  6.65206  12.73754  8.54271
 H  7.91079  14.10863  6.57131
 H  8.69524  13.42223  8.13652
 C  4.58129  10.90817  6.21427
 C  4.58636  10.83229  4.53655
 C  3.37610  9.80970  3.96589
 H  3.39769  8.81234  4.55021
 H  3.54095  9.61218  2.83851
 H  2.35015  10.32640  4.12038
 H  4.41952  11.88629  4.10655
 H  5.60604  10.42383  4.18980
 H  5.16171  9.98208  6.60244
 H  3.48159  10.81366  6.56726
 H  -12.46254  -12.99472  -6.80805
 H  -9.80913  -14.59265  -3.37417
 H  11.66856  12.05000  3.55855
 H  10.94658  13.08442  8.00762
*
