# ================================================================
# Orca input file made by Matty Jones
# ================================================================
! ZINDO/S 
! NOPOP
! NOMOPRINT
* xyz 0   1
 C  18.17147  -3.89817  -6.07414
 C  19.40313  -3.25883  -5.92530
 C  20.31849  -3.94697  -5.06923
 C  19.80703  -5.13568  -4.53942
 S  18.27080  -5.27083  -5.14946
 H  19.62049  -2.10654  -5.78031
 C  21.80650  -3.39917  -4.74533
 C  21.99418  -1.81180  -4.15471
 C  23.57886  -1.23246  -3.89769
 H  23.47605  -0.07511  -3.98637
 H  24.20347  -1.58625  -4.80028
 H  21.49422  -1.09892  -4.90638
 H  21.44618  -1.76111  -3.14328
 H  22.33478  -4.09158  -3.97497
 H  22.43699  -3.43490  -5.72911
 C  24.37970  -1.51249  -2.50459
 C  26.00047  -0.99520  -2.52017
 C  26.32887  0.57587  -2.01274
 H  26.48017  1.25270  -2.93978
 H  27.29636  0.57561  -1.37560
 H  25.44806  0.97503  -1.37933
 H  26.59818  -1.71520  -1.84624
 H  26.37850  -1.08262  -3.60645
 H  24.38352  -2.64682  -2.28352
 H  23.85044  -0.96583  -1.63487
 C  -24.85808  -1.58831  5.35444
 C  -24.76616  -0.36607  4.68692
 C  -25.19240  0.75655  5.46299
 C  -25.62307  0.41906  6.74983
 S  -25.45616  -1.22740  6.85815
 H  -24.82802  -0.33879  3.53106
 C  -25.07195  2.18595  4.70973
 C  -23.59761  2.14297  3.78059
 C  -22.72195  3.18709  2.74842
 H  -23.35331  4.14160  2.60418
 H  -22.62401  2.64816  1.72824
 H  -22.82136  1.79644  4.56363
 H  -23.80005  1.28397  3.03166
 H  -25.95719  2.35194  3.98525
 H  -25.00050  3.05926  5.46163
 C  -21.23440  3.57671  3.28809
 C  -20.08205  3.70767  2.04981
 C  -18.51472  3.97627  2.60094
 H  -18.54962  4.53496  3.61328
 H  -17.93774  4.61206  1.82516
 H  -17.98186  2.95741  2.73904
 H  -20.08802  2.72644  1.44622
 H  -20.38449  4.58450  1.36763
 H  -20.84863  2.77457  4.02282
 H  -21.27721  4.59583  3.83177
 H  17.34649  -3.57444  -6.65570
 H  20.29835  -5.80935  -3.88491
 H  -24.59996  -2.54548  4.97921
 H  -25.98123  1.07768  7.49919
*
