# ================================================================
# Orca input file made by Matty Jones
# ================================================================
! ZINDO/S 
! NOPOP
! NOMOPRINT
* xyz 0   1
 C  -12.72658  -4.13740  31.26305
 C  -13.16122  -5.00599  30.26079
 C  -12.95142  -6.38924  30.55554
 C  -12.34806  -6.61404  31.79680
 S  -12.10928  -5.11066  32.45503
 H  -12.92243  -4.87525  29.10145
 C  -13.42825  -7.42708  29.40708
 C  -14.46491  -8.79091  29.46685
 C  -16.10654  -8.41960  29.16706
 H  -16.48254  -7.90021  30.13269
 H  -16.10716  -7.63797  28.31145
 H  -14.11750  -9.54081  28.66959
 H  -14.38592  -9.25559  30.51405
 H  -12.44159  -7.89060  28.96950
 H  -13.90002  -6.79567  28.53814
 C  -17.18835  -9.58558  28.77314
 C  -17.45826  -9.78450  27.10361
 C  -18.64158  -10.90493  26.66853
 H  -19.68844  -10.43884  26.82959
 H  -18.53187  -11.85398  27.32026
 H  -18.51050  -11.18225  25.55216
 H  -17.76897  -8.76204  26.67318
 H  -16.46449  -10.11980  26.62786
 H  -16.83094  -10.60453  29.18178
 H  -18.21123  -9.32780  29.24652
 C  19.57947  8.39056  -30.44995
 C  18.26518  8.69040  -30.08852
 C  18.09301  8.97794  -28.69857
 C  19.27733  8.90478  -27.95873
 S  20.45854  8.49395  -29.04794
 H  17.39987  8.73843  -30.83250
 C  16.75001  9.37047  -27.86066
 C  15.21309  8.64030  -27.53531
 C  13.64176  8.52792  -28.20472
 H  12.89458  8.74450  -27.34658
 H  13.54788  9.36669  -28.99288
 H  15.51753  7.53121  -27.38677
 H  14.97666  9.08696  -26.48472
 H  17.10959  9.61013  -26.76804
 H  16.39773  10.39604  -28.31402
 C  13.28628  7.08774  -28.87239
 C  12.90613  7.01299  -30.51181
 C  11.25835  6.80000  -30.79425
 H  10.67367  7.72541  -30.42312
 H  10.89692  5.85726  -30.22664
 H  11.08468  6.65421  -31.92905
 H  13.22772  8.00271  -31.00740
 H  13.48112  6.13648  -30.98677
 H  14.17808  6.36413  -28.71541
 H  12.37370  6.64833  -28.30203
 H  -12.77987  -3.07874  31.26236
 H  -12.09605  -7.54948  32.22697
 H  19.93970  8.14790  -31.41688
 H  19.39539  9.07604  -26.91934
*
