# ================================================================
# Orca input file made by Matty Jones
# ================================================================
! ZINDO/S 
! NOPOP
! NOMOPRINT
* xyz 0   1
 C  21.13195  1.13208  -12.29260
 C  20.47968  -0.09309  -12.43888
 C  21.07317  -1.16257  -11.69843
 C  22.19975  -0.77996  -10.96377
 S  22.39945  0.83867  -11.26476
 H  19.37857  -0.10799  -12.73123
 C  20.36632  -2.60330  -11.82292
 C  18.68077  -2.56625  -11.65915
 C  18.01479  -2.31503  -13.18546
 H  16.91801  -1.97757  -13.04802
 H  18.57317  -1.52696  -13.80924
 H  18.30601  -3.55880  -11.21949
 H  18.38804  -1.69500  -10.96662
 H  20.66517  -3.45388  -11.10150
 H  20.60833  -3.01378  -12.89355
 C  18.09230  -3.71453  -14.01028
 C  17.42057  -3.59013  -15.54328
 C  15.79916  -4.02139  -15.50196
 H  15.19016  -3.28782  -16.15733
 H  15.40751  -3.97930  -14.41320
 H  15.68594  -5.09867  -15.91018
 H  17.51389  -2.50297  -15.91346
 H  17.98620  -4.29289  -16.25960
 H  19.19358  -4.03925  -14.14926
 H  17.54062  -4.54482  -13.42345
 C  -20.84821  -1.15551  10.77142
 C  -20.25054  -0.46064  11.82397
 C  -21.08720  0.53709  12.41456
 C  -22.35190  0.63054  11.82539
 S  -22.36815  -0.51018  10.62167
 H  -19.18624  -0.64933  12.17952
 C  -20.66348  1.50278  13.64119
 C  -19.33863  2.51588  13.35335
 C  -18.92933  3.61329  14.58023
 H  -19.89496  4.15685  14.90815
 H  -18.51305  3.01365  15.47463
 H  -18.41940  1.85177  13.15774
 H  -19.58379  3.12958  12.40880
 H  -21.54520  2.15775  14.01659
 H  -20.34175  0.82765  14.54988
 C  -17.82987  4.70474  14.07066
 C  -16.22594  4.26076  14.33702
 C  -15.61778  3.23989  13.14756
 H  -16.38540  3.13276  12.28857
 H  -15.41491  2.19967  13.61472
 H  -14.63022  3.67634  12.73168
 H  -15.58860  5.22214  14.34538
 H  -16.14642  3.73947  15.36020
 H  -18.00590  5.70708  14.62366
 H  -17.96184  4.89139  12.93622
 H  20.87186  2.05545  -12.74353
 H  22.80037  -1.39558  -10.34419
 H  -20.42059  -1.93206  10.19030
 H  -23.13604  1.29198  12.09225
*
