# ================================================================
# Orca input file made by Matty Jones
# ================================================================
! ZINDO/S 
! NOPOP
! NOMOPRINT
* xyz 0   1
 C  -15.35249  -2.19379  -9.21302
 C  -15.84830  -3.38748  -9.73949
 C  -15.25604  -4.56266  -9.18053
 C  -14.28768  -4.29557  -8.20777
 S  -14.21623  -2.64272  -8.09210
 H  -16.59682  -3.45497  -10.60039
 C  -15.71198  -6.04322  -9.66329
 C  -17.37048  -6.53010  -9.56223
 C  -18.84819  -6.52717  -10.46199
 H  -19.32987  -7.54629  -10.16506
 H  -19.46384  -5.69162  -9.93152
 H  -17.24254  -7.66929  -9.35977
 H  -17.69521  -6.01872  -8.57270
 H  -15.10678  -6.86972  -9.11656
 H  -15.46501  -6.14356  -10.80320
 C  -19.15975  -6.34452  -12.05575
 C  -19.36558  -7.78373  -12.93766
 C  -20.92481  -8.43532  -12.94619
 H  -21.00674  -9.22978  -12.10803
 H  -21.12595  -8.93452  -13.97107
 H  -21.70062  -7.59770  -12.76370
 H  -19.08216  -7.55819  -14.03239
 H  -18.64776  -8.57397  -12.50818
 H  -20.13427  -5.73238  -12.18259
 H  -18.29084  -5.76330  -12.54758
 C  22.47528  5.84288  10.59988
 C  21.39284  5.17712  11.17694
 C  20.36226  6.04441  11.65649
 C  20.63228  7.40185  11.45709
 S  22.11112  7.45679  10.70848
 H  20.87432  4.14814  10.92386
 C  18.96780  5.61934  12.35629
 C  17.76671  5.13069  11.24905
 C  16.99906  6.56882  10.72387
 H  16.44085  6.97076  11.65827
 H  17.86839  7.29752  10.48024
 H  18.23909  4.59167  10.35682
 H  16.99785  4.46553  11.77829
 H  18.53353  6.46484  13.01704
 H  19.15098  4.70242  13.05526
 C  15.96347  6.64003  9.46535
 C  14.29305  6.60306  9.71820
 C  13.59499  5.08351  9.57866
 H  14.30042  4.29133  10.03998
 H  13.42241  4.84560  8.45860
 H  12.58057  5.07593  10.13572
 H  13.80200  7.29425  8.93513
 H  14.07622  7.00966  10.77409
 H  16.17341  7.62654  8.88937
 H  16.20449  5.75531  8.75524
 H  -15.64143  -1.20805  -9.47462
 H  -13.71845  -5.00170  -7.65917
 H  23.34648  5.40836  10.18059
 H  20.01995  8.22368  11.72775
*
