# ================================================================
# Orca input file made by Matty Jones
# ================================================================
! ZINDO/S 
! NOPOP
! NOMOPRINT
* xyz 0   1
 C  -22.42356  -4.96856  1.22728
 C  -21.22461  -4.27233  1.38758
 C  -20.40151  -4.76360  2.44844
 C  -20.95330  -5.85324  3.12927
 S  -22.41004  -6.14737  2.39318
 H  -21.03378  -3.28434  0.85073
 C  -18.99905  -3.99650  2.66408
 C  -18.27431  -3.63788  1.15391
 C  -16.84351  -2.76416  0.96074
 H  -16.69358  -2.17191  1.94807
 H  -17.04667  -1.99637  0.11347
 H  -18.09519  -4.66504  0.65540
 H  -19.04212  -3.04713  0.52758
 H  -19.16741  -2.99806  3.22536
 H  -18.25515  -4.65163  3.26605
 C  -15.46068  -3.54318  0.61848
 C  -14.19853  -2.44903  0.33046
 C  -13.37093  -2.03585  1.73181
 H  -12.75719  -1.07269  1.54627
 H  -12.65945  -2.90126  2.02164
 H  -14.12970  -1.85379  2.58686
 H  -13.46036  -2.93016  -0.41068
 H  -14.63719  -1.48922  -0.13297
 H  -15.59628  -4.17980  -0.33692
 H  -15.15724  -4.23341  1.49167
 C  15.08949  0.30317  -3.18134
 C  15.96807  1.24061  -2.63620
 C  15.33905  2.20930  -1.79347
 C  13.95680  2.03591  -1.67255
 S  13.59081  0.71181  -2.60162
 H  17.09083  1.24264  -2.82982
 C  16.12911  3.41016  -1.06801
 C  17.14384  4.33924  -2.03893
 C  17.80082  5.63820  -1.18088
 H  16.93332  6.12707  -0.58640
 H  18.16804  6.40587  -1.96801
 H  17.98936  3.67628  -2.44040
 H  16.52388  4.75738  -2.91529
 H  15.47202  4.15633  -0.48147
 H  16.83555  2.92018  -0.25926
 C  19.01699  5.30452  -0.15812
 C  20.54519  5.19994  -0.85805
 C  20.93867  3.61717  -1.27078
 H  21.96028  3.60876  -1.81366
 H  20.12687  3.17845  -1.96647
 H  21.00641  2.98174  -0.30522
 H  20.56724  5.84576  -1.81111
 H  21.32434  5.59111  -0.10559
 H  18.80353  4.30188  0.37948
 H  19.06934  6.14028  0.64431
 H  -23.18270  -4.78288  0.51116
 H  -20.52928  -6.38080  3.94504
 H  15.32968  -0.50057  -3.82934
 H  13.28382  2.62702  -1.10574
*
