# ================================================================
# Orca input file made by Matty Jones
# ================================================================
! ZINDO/S 
! NOPOP
! NOMOPRINT
* xyz 0   1
 C  16.94581  6.93136  -7.12117
 C  16.29354  5.70619  -7.26745
 C  16.88702  4.63672  -6.52700
 C  18.01361  5.01933  -5.79234
 S  18.21331  6.63795  -6.09333
 H  15.19243  5.69130  -7.55980
 C  16.18018  3.19599  -6.65149
 C  14.49463  3.23304  -6.48772
 C  13.82865  3.48426  -8.01404
 H  12.73187  3.82172  -7.87659
 H  14.38702  4.27233  -8.63781
 H  14.11986  2.24049  -6.04806
 H  14.20190  4.10429  -5.79519
 H  16.47902  2.34540  -5.93007
 H  16.42218  2.78551  -7.72212
 C  13.90615  2.08476  -8.83885
 C  13.23442  2.20915  -10.37185
 C  11.61302  1.77789  -10.33053
 H  11.00402  2.51146  -10.98590
 H  11.22137  1.81998  -9.24177
 H  11.49979  0.70062  -10.73875
 H  13.32774  3.29632  -10.74203
 H  13.80005  1.50640  -11.08817
 H  15.00743  1.76004  -8.97783
 H  13.35447  1.25446  -8.25202
 C  -17.26839  -6.82111  6.28869
 C  -16.38981  -5.88367  6.83382
 C  -17.01883  -4.91498  7.67655
 C  -18.40108  -5.08837  7.79747
 S  -18.76707  -6.41247  6.86841
 H  -15.26705  -5.88165  6.64020
 C  -16.22877  -3.71412  8.40201
 C  -15.21404  -2.78505  7.43109
 C  -14.55706  -1.48608  8.28914
 H  -15.42456  -0.99722  8.88362
 H  -14.18984  -0.71841  7.50201
 H  -14.36852  -3.44801  7.02963
 H  -15.83400  -2.36691  6.55474
 H  -16.88586  -2.96795  8.98855
 H  -15.52233  -4.20410  9.21076
 C  -13.34089  -1.81976  9.31191
 C  -11.81269  -1.92434  8.61197
 C  -11.41921  -3.50711  8.19925
 H  -10.39759  -3.51553  7.65637
 H  -12.23101  -3.94583  7.50356
 H  -11.35147  -4.14254  9.16480
 H  -11.79064  -1.27852  7.65892
 H  -11.03354  -1.53317  9.36443
 H  -13.55435  -2.82240  9.84951
 H  -13.28854  -0.98400  10.11434
 H  16.68572  7.85474  -7.57210
 H  18.61422  4.40371  -5.17277
 H  -17.02820  -7.62485  5.64069
 H  -19.07406  -4.49726  8.36429
*
