# ================================================================
# Orca input file made by Matty Jones
# ================================================================
! ZINDO/S 
! NOPOP
! NOMOPRINT
* xyz 0   1
 C  23.24216  3.96206  -5.47626
 C  22.80751  3.09347  -6.47852
 C  23.01731  1.71022  -6.18377
 C  23.62068  1.48543  -4.94251
 S  23.85945  2.98881  -4.28428
 H  23.04630  3.22421  -7.63786
 C  22.54048  0.67238  -7.33223
 C  21.50382  -0.69145  -7.27246
 C  19.86219  -0.32014  -7.57225
 H  19.48619  0.19925  -6.60662
 H  19.86158  0.46149  -8.42786
 H  21.85123  -1.44135  -8.06972
 H  21.58281  -1.15613  -6.22526
 H  23.52714  0.20886  -7.76981
 H  22.06871  1.30379  -8.20117
 C  18.78038  -1.48612  -7.96617
 C  18.51047  -1.68504  -9.63570
 C  17.32716  -2.80546  -10.07078
 H  16.28029  -2.33938  -9.90972
 H  17.43686  -3.75452  -9.41905
 H  17.45823  -3.08278  -11.18715
 H  18.19976  -0.66258  -10.06613
 H  19.50424  -2.02034  -10.11145
 H  19.13779  -2.50507  -7.55753
 H  17.75750  -1.22834  -7.49279
 C  -16.50789  -0.35683  6.02449
 C  -17.73377  -0.87299  5.60176
 C  -18.86355  -0.33492  6.29338
 C  -18.52809  0.61088  7.26715
 S  -16.87455  0.72995  7.22180
 H  -18.08375  -1.09438  4.47518
 C  -20.36792  -0.81701  5.91440
 C  -21.60788  -1.23358  7.03328
 C  -21.41241  -1.29925  8.71522
 H  -22.28098  -1.92525  9.15171
 H  -20.41228  -1.82506  8.94741
 H  -22.47689  -0.50446  6.82465
 H  -21.94266  -2.30110  6.73311
 H  -20.26154  -1.77748  5.25657
 H  -20.84958  0.01483  5.24626
 C  -21.43976  0.19452  9.35169
 C  -22.89306  0.95440  9.72378
 C  -23.37461  2.04341  8.52483
 H  -24.52792  2.04599  8.43757
 H  -22.91685  1.73146  7.50841
 H  -23.00938  3.10829  8.79049
 H  -23.66808  0.11020  9.80496
 H  -22.77324  1.47825  10.73689
 H  -20.74853  0.25628  10.27112
 H  -21.03952  0.82795  8.47127
 H  23.18886  5.02072  -5.47694
 H  23.87268  0.54998  -4.51234
 H  -15.54540  -0.60687  5.65748
 H  -19.19171  1.14079  7.90149
*
