# ================================================================
# Orca input file made by Matty Jones
# ================================================================
! ZINDO/S 
! NOPOP
! NOMOPRINT
* xyz 0   1
 C  13.13191  8.39641  -8.49151
 C  13.68652  7.52981  -9.43453
 C  14.83057  6.81165  -8.96584
 C  15.18109  7.11270  -7.64606
 S  14.07267  8.23579  -7.13568
 H  13.39276  7.69039  -10.52463
 C  15.43767  5.80657  -10.08879
 C  14.23329  5.52453  -11.34163
 C  12.85633  4.52107  -11.24878
 H  13.21937  3.44624  -11.47381
 H  12.52260  4.56928  -10.13944
 H  14.89951  4.91784  -12.09544
 H  13.96457  6.48387  -11.91100
 H  15.69980  4.78074  -9.62799
 H  16.36656  6.26732  -10.59762
 C  11.52025  4.80438  -12.17148
 C  11.28347  6.19366  -13.12825
 C  9.80357  6.23158  -13.95321
 H  9.02865  5.58295  -13.39063
 H  9.95256  5.81793  -15.02346
 H  9.42528  7.32387  -14.01019
 H  12.12831  6.24368  -13.90665
 H  11.32786  7.11365  -12.43865
 H  11.41971  3.91553  -12.91021
 H  10.60416  4.78063  -11.45849
 C  -15.43889  -9.43405  9.36208
 C  -14.56031  -8.49661  9.90722
 C  -15.18933  -7.52791  10.74995
 C  -16.57158  -7.70131  10.87087
 S  -16.93757  -9.02541  9.94180
 H  -13.43756  -8.49458  9.71360
 C  -14.39928  -6.32706  11.47541
 C  -13.38454  -5.39798  10.50449
 C  -12.72756  -4.09902  11.36254
 H  -13.59506  -3.61015  11.95702
 H  -12.36034  -3.33134  10.57540
 H  -12.53902  -6.06094  10.10302
 H  -14.00450  -4.97984  9.62813
 H  -15.05636  -5.58088  12.06195
 H  -13.69283  -6.81703  12.28416
 C  -11.51139  -4.43270  12.38530
 C  -9.98319  -4.53728  11.68537
 C  -9.58972  -6.12005  11.27264
 H  -8.56810  -6.12846  10.72976
 H  -10.40152  -6.55877  10.57695
 H  -9.52198  -6.75548  12.23820
 H  -9.96114  -3.89145  10.73231
 H  -9.20404  -4.14611  12.43783
 H  -11.72486  -5.43534  12.92290
 H  -11.45905  -3.59693  13.18773
 H  12.28734  9.02477  -8.61586
 H  15.98661  6.70784  -7.08854
 H  -15.19870  -10.23779  8.71408
 H  -17.24457  -7.11020  11.43768
*
