# ================================================================
# Orca input file made by Matty Jones
# ================================================================
! ZINDO/S 
! NOPOP
! NOMOPRINT
* xyz 0   1
 C  -5.91125  0.44917  -3.01320
 C  -4.67959  1.08850  -2.86437
 C  -3.76423  0.40037  -2.00830
 C  -4.27569  -0.78834  -1.47848
 S  -5.81192  -0.92349  -2.08853
 H  -4.46222  2.24079  -2.71938
 C  -2.27621  0.94816  -1.68439
 C  -2.08853  2.53553  -1.09377
 C  -0.50386  3.11487  -0.83676
 H  -0.60667  4.27222  -0.92543
 H  0.12075  2.76108  -1.73934
 H  -2.58849  3.24841  -1.84545
 H  -2.63654  2.58623  -0.08235
 H  -1.74794  0.25576  -0.91404
 H  -1.64573  0.91243  -2.66818
 C  0.29698  2.83485  0.55635
 C  1.91775  3.35213  0.54076
 C  2.24615  4.92320  1.04819
 H  2.39746  5.60004  0.12116
 H  3.21364  4.92294  1.68533
 H  1.36534  5.32236  1.68160
 H  2.51546  2.63214  1.21469
 H  2.29579  3.26472  -0.54551
 H  0.30080  1.70052  0.77741
 H  -0.23228  3.38150  1.42606
 C  -1.93362  -4.26510  3.07264
 C  -0.74068  -4.02604  2.38879
 C  0.42545  -4.50307  3.06469
 C  0.15195  -5.12193  4.28842
 S  -1.49514  -5.04738  4.46723
 H  -0.52991  -2.91240  2.03614
 C  1.84110  -4.23931  2.30059
 C  1.80474  -2.66501  1.53793
 C  2.76903  -1.60346  0.57579
 H  3.21342  -0.79764  1.26705
 H  3.60763  -2.20922  0.07912
 H  0.97286  -2.87887  0.75334
 H  1.43622  -1.97643  2.38489
 H  2.72288  -4.23255  3.05029
 H  2.02838  -5.02807  1.48141
 C  1.79337  -0.90373  -0.54678
 C  2.23891  0.47326  -1.43619
 C  2.94447  0.35215  -2.95962
 H  3.11979  1.42137  -3.37334
 H  2.23461  -0.22173  -3.67043
 H  3.95547  -0.20118  -2.87584
 H  1.26082  1.05677  -1.59115
 H  2.96215  1.07564  -0.77252
 H  1.56669  -1.71493  -1.34641
 H  0.79340  -0.62687  -0.02757
 H  -6.73623  0.77289  -3.59477
 H  -3.78437  -1.46201  -0.82398
 H  -2.91337  -4.00203  2.76526
 H  0.85100  -5.54924  4.96097
*
