# ================================================================
# Orca input file made by Matty Jones
# ================================================================
! ZINDO/S 
! NOPOP
! NOMOPRINT
* xyz 0   1
 C  15.46364  5.31602  33.36092
 C  16.01825  4.44942  32.41790
 C  17.16230  3.73126  32.88659
 C  17.51282  4.03231  34.20637
 S  16.40440  5.15540  34.71675
 H  15.72449  4.61000  31.32780
 C  17.76940  2.72618  31.76364
 C  16.56502  2.44414  30.51079
 C  15.18806  1.44068  30.60365
 H  15.55110  0.36586  30.37862
 H  14.85433  1.48889  31.71299
 H  17.23124  1.83746  29.75699
 H  16.29630  3.40348  29.94143
 H  18.03153  1.70036  32.22444
 H  18.69829  3.18694  31.25481
 C  13.85198  1.72399  29.68095
 C  13.61520  3.11327  28.72418
 C  12.13530  3.15119  27.89921
 H  11.36038  2.50256  28.46180
 H  12.28429  2.73754  26.82897
 H  11.75701  4.24348  27.84224
 H  14.46004  3.16329  27.94578
 H  13.65959  4.03326  29.41378
 H  13.75144  0.83514  28.94222
 H  12.93589  1.70025  30.39394
 C  -17.37911  -6.76221  -29.30175
 C  -17.28719  -5.53997  -29.96927
 C  -17.71343  -4.41735  -29.19319
 C  -18.14410  -4.75484  -27.90636
 S  -17.97720  -6.40130  -27.79804
 H  -17.34906  -5.51269  -31.12513
 C  -17.59298  -2.98794  -29.94645
 C  -16.11865  -3.03093  -30.87560
 C  -15.24299  -1.98681  -31.90777
 H  -15.87435  -1.03230  -32.05201
 H  -15.14505  -2.52574  -32.92794
 H  -15.34240  -3.37746  -30.09256
 H  -16.32109  -3.88993  -31.62453
 H  -18.47823  -2.82196  -30.67094
 H  -17.52153  -2.11464  -29.19456
 C  -13.75544  -1.59719  -31.36810
 C  -12.60308  -1.46623  -32.60637
 C  -11.03576  -1.19763  -32.05525
 H  -11.07066  -0.63894  -31.04291
 H  -10.45877  -0.56184  -32.83103
 H  -10.50290  -2.21649  -31.91714
 H  -12.60905  -2.44745  -33.20997
 H  -12.90553  -0.58940  -33.28856
 H  -13.36966  -2.39932  -30.63336
 H  -13.79824  -0.57806  -30.82442
 H  14.61907  5.94438  33.23656
 H  18.31834  3.62745  34.76389
 H  -17.12100  -7.71938  -29.67698
 H  -18.50227  -4.09622  -27.15700
*
