# ================================================================
# Orca input file made by Matty Jones
# ================================================================
! ZINDO/S 
! NOPOP
! NOMOPRINT
* xyz 0   1
 C  -11.46833  13.54827  24.16884
 C  -10.26881  14.22127  24.40572
 C  -9.35150  13.50484  25.23610
 C  -9.82911  12.25984  25.65705
 S  -11.33996  12.11305  24.98906
 H  -10.05372  15.37043  24.57806
 C  -7.85481  13.85945  25.81135
 C  -6.40844  14.53448  25.19665
 C  -6.08284  16.17910  25.44422
 H  -5.54714  16.57190  24.49835
 H  -7.09108  16.72628  25.56311
 H  -5.53562  13.93787  25.65823
 H  -6.42256  14.35917  24.05790
 H  -8.05211  14.55880  26.73477
 H  -7.43539  12.85698  26.25963
 C  -5.13841  16.48368  26.75053
 C  -5.91079  16.70879  28.24112
 C  -4.88126  17.11022  29.51666
 H  -3.90958  16.48780  29.44252
 H  -5.41276  16.88339  30.51913
 H  -4.62739  18.23782  29.45906
 H  -6.68127  17.55585  28.12130
 H  -6.44953  15.72782  28.51453
 H  -4.39495  15.60783  26.89380
 H  -4.52687  17.44590  26.54772
 C  8.96733  -11.00875  -29.30669
 C  8.18651  -11.93778  -28.61740
 C  8.94034  -12.87395  -27.84306
 C  10.32338  -12.68317  -27.92130
 S  10.53774  -11.38452  -28.93024
 H  7.04473  -11.93998  -28.63103
 C  8.31930  -14.09346  -26.95672
 C  7.06222  -14.03389  -25.78335
 C  6.72524  -15.53305  -24.99600
 H  6.64996  -15.26249  -23.87096
 H  7.68544  -16.16509  -25.15258
 H  6.10037  -13.70282  -26.31541
 H  7.35685  -13.27324  -24.97766
 H  9.20388  -14.58365  -26.36550
 H  7.92129  -14.89831  -27.71061
 C  5.45680  -16.50723  -25.34213
 C  5.40232  -18.00010  -24.51866
 C  6.01134  -19.30678  -25.39304
 H  7.13435  -19.13800  -25.60854
 H  5.43047  -19.39311  -26.39133
 H  5.87121  -20.27888  -24.78107
 H  6.02521  -17.89889  -23.55441
 H  4.30649  -18.22530  -24.24730
 H  5.44528  -16.73895  -26.47269
 H  4.47968  -15.95282  -25.06396
 H  -12.28848  13.88391  23.58720
 H  -9.32998  11.55704  26.27393
 H  8.62794  -10.22764  -29.93778
 H  11.07700  -13.24994  -27.43712
*
