# ================================================================
# Orca input file made by Matty Jones
# ================================================================
! ZINDO/S 
! NOPOP
! NOMOPRINT
* xyz 0   1
 C  -5.40966  4.24624  39.35851
 C  -4.85504  3.37964  38.41549
 C  -3.71100  2.66148  38.88419
 C  -3.36047  2.96253  40.20396
 S  -4.46890  4.08562  40.71434
 H  -5.14881  3.54022  37.32540
 C  -3.10390  1.65640  37.76123
 C  -4.30828  1.37436  36.50839
 C  -5.68523  0.37090  36.60125
 H  -5.32219  -0.70392  36.37622
 H  -6.01897  0.41911  37.71059
 H  -3.64205  0.76768  35.75458
 H  -4.57699  2.33370  35.93903
 H  -2.84177  0.63058  38.22204
 H  -2.17501  2.11715  37.25240
 C  -7.02132  0.65421  35.67854
 C  -7.25810  2.04349  34.72177
 C  -8.73800  2.08141  33.89681
 H  -9.51292  1.43278  34.45939
 H  -8.58900  1.66776  32.82656
 H  -9.11629  3.17370  33.83984
 H  -6.41326  2.09351  33.94337
 H  -7.21371  2.96348  35.41137
 H  -7.12186  -0.23464  34.93981
 H  -7.93740  0.63047  36.39154
 C  1.44471  -3.56550  -38.98890
 C  2.64423  -2.89250  -38.75201
 C  3.56153  -3.60893  -37.92163
 C  3.08393  -4.85393  -37.50069
 S  1.57308  -5.00073  -38.16867
 H  2.85931  -1.74334  -38.57967
 C  5.05822  -3.25433  -37.34638
 C  6.50459  -2.57930  -37.96108
 C  6.83020  -0.93467  -37.71352
 H  7.36590  -0.54187  -38.65938
 H  5.82196  -0.38749  -37.59462
 H  7.37742  -3.17590  -37.49950
 H  6.49048  -2.75461  -39.09984
 H  4.86093  -2.55498  -36.42297
 H  5.47765  -4.25679  -36.89810
 C  7.77462  -0.63009  -36.40720
 C  7.00224  -0.40498  -34.91661
 C  8.03177  -0.00356  -33.64108
 H  9.00346  -0.62598  -33.71521
 H  7.50028  -0.23038  -32.63860
 H  8.28565  1.12404  -33.69868
 H  6.23177  0.44208  -35.03644
 H  6.46351  -1.38595  -34.64320
 H  8.51809  -1.50595  -36.26393
 H  8.38617  0.33212  -36.61001
 H  -6.25423  4.87460  39.23416
 H  -2.55495  2.55767  40.76148
 H  0.62456  -3.22987  -39.57054
 H  3.58305  -5.55673  -36.88380
*
