# ================================================================
# Orca input file made by Matty Jones
# ================================================================
! ZINDO/S 
! NOPOP
! NOMOPRINT
* xyz 0   1
 C  25.49499  0.86003  -11.70656
 C  24.84272  -0.36515  -11.85284
 C  25.43620  -1.43462  -11.11239
 C  26.56279  -1.05201  -10.37773
 S  26.76249  0.56662  -10.67872
 H  23.74161  -0.38004  -12.14519
 C  24.72936  -2.87535  -11.23688
 C  23.04381  -2.83830  -11.07311
 C  22.37783  -2.58708  -12.59943
 H  21.28105  -2.24962  -12.46198
 H  22.93620  -1.79901  -13.22320
 H  22.66904  -3.83085  -10.63345
 H  22.75108  -1.96705  -10.38058
 H  25.02820  -3.72594  -10.51546
 H  24.97136  -3.28583  -12.30751
 C  22.45533  -3.98658  -13.42424
 C  21.78360  -3.86218  -14.95724
 C  20.16220  -4.29344  -14.91592
 H  19.55320  -3.55987  -15.57129
 H  19.77055  -4.25136  -13.82716
 H  20.04897  -5.37072  -15.32414
 H  21.87692  -2.77502  -15.32742
 H  22.34923  -4.56494  -15.67356
 H  23.55661  -4.31130  -13.56322
 H  21.90365  -4.81687  -12.83741
 C  -18.45350  2.39475  12.51787
 C  -19.53594  1.72900  13.09493
 C  -20.56652  2.59629  13.57448
 C  -20.29650  3.95373  13.37508
 S  -18.81766  4.00866  12.62647
 H  -20.05446  0.70002  12.84185
 C  -21.96098  2.17122  14.27428
 C  -23.16207  1.68256  13.16704
 C  -23.92973  3.12069  12.64186
 H  -24.48793  3.52263  13.57626
 H  -23.06039  3.84940  12.39823
 H  -22.68969  1.14355  12.27481
 H  -23.93093  1.01741  13.69628
 H  -22.39525  3.01672  14.93503
 H  -21.77780  1.25429  14.97325
 C  -24.96531  3.19190  11.38334
 C  -26.63573  3.15494  11.63619
 C  -27.33379  1.63539  11.49665
 H  -26.62836  0.84321  11.95797
 H  -27.50637  1.39748  10.37659
 H  -28.34821  1.62781  12.05371
 H  -27.12678  3.84613  10.85312
 H  -26.85257  3.56154  12.69208
 H  -24.75537  4.17841  10.80736
 H  -24.72429  2.30719  10.67323
 H  25.23490  1.78340  -12.15749
 H  27.16340  -1.66763  -9.75816
 H  -17.58230  1.96023  12.09858
 H  -20.90883  4.77556  13.64574
*
