# ================================================================
# Orca input file made by Matty Jones
# ================================================================
! ZINDO/S 
! NOPOP
! NOMOPRINT
* xyz 0   1
 C  15.80164  -0.98908  -5.27153
 C  17.02565  -0.35139  -5.06407
 C  17.93266  -1.08379  -4.23631
 C  17.42228  -2.30598  -3.78789
 S  15.89710  -2.41458  -4.43013
 H  17.70586  0.22169  -5.86156
 C  19.39709  -0.48369  -3.89565
 C  19.54358  1.07117  -3.18983
 C  21.08155  1.80077  -2.97620
 H  20.79669  2.92579  -2.81670
 H  21.60511  1.72100  -4.00424
 H  18.92943  1.78405  -3.85251
 H  19.06873  0.99749  -2.14381
 H  19.95423  -1.20780  -3.17943
 H  20.01727  -0.42964  -4.88356
 C  22.16576  1.48259  -1.79782
 C  23.76148  1.89938  -2.24755
 C  24.41551  3.40590  -1.88189
 H  24.41449  3.55204  -0.73485
 H  23.79413  4.23647  -2.39097
 H  25.50663  3.44131  -2.27238
 H  24.45789  1.12171  -1.75535
 H  23.81808  1.80241  -3.39661
 H  22.15233  0.35654  -1.54666
 H  21.91153  2.08352  -0.84440
 C  -22.93345  -4.30925  1.65578
 C  -22.04763  -3.32874  2.10501
 C  -22.63386  -2.37609  2.99554
 C  -23.98942  -2.60550  3.25076
 S  -24.38573  -3.95597  2.37352
 H  -20.94660  -3.28840  1.81937
 C  -21.78700  -1.13833  3.60712
 C  -20.85626  -0.22494  2.54453
 C  -20.17387  1.04399  3.42738
 H  -20.12027  0.74240  4.53975
 H  -20.92054  1.93076  3.34329
 H  -20.03449  -0.87889  2.07855
 H  -21.53944  0.20393  1.72414
 H  -22.36670  -0.33652  4.19399
 H  -21.03437  -1.60313  4.37341
 C  -18.73287  1.53015  2.86801
 C  -17.41752  0.77185  3.61778
 C  -17.77546  -0.26054  4.90190
 H  -18.25610  0.34558  5.76213
 H  -16.79476  -0.74780  5.27929
 H  -18.50241  -1.08623  4.54587
 H  -16.86881  0.15057  2.81659
 H  -16.71563  1.59618  4.01354
 H  -18.62253  2.66980  3.03528
 H  -18.66099  1.31471  1.73322
 H  14.98350  -0.63644  -5.84589
 H  17.90842  -3.01467  -3.16739
 H  -22.72229  -5.11078  0.99505
 H  -24.62965  -2.03557  3.87437
*
