# ================================================================
# Orca input file made by Matty Jones
# ================================================================
! ZINDO/S 
! NOPOP
! NOMOPRINT
* xyz 0   1
 C  -24.28231  -2.86497  4.37173
 C  -23.08336  -2.16874  4.53203
 C  -22.26026  -2.66001  5.59290
 C  -22.81205  -3.74966  6.27372
 S  -24.26879  -4.04378  5.53763
 H  -22.89253  -1.18076  3.99518
 C  -20.85780  -1.89291  5.80854
 C  -20.13306  -1.53429  4.29837
 C  -18.70226  -0.66058  4.10520
 H  -18.55233  -0.06833  5.09253
 H  -18.90542  0.10721  3.25793
 H  -19.95394  -2.56146  3.79985
 H  -20.90087  -0.94355  3.67204
 H  -21.02616  -0.89447  6.36982
 H  -20.11390  -2.54805  6.41050
 C  -17.31943  -1.43960  3.76294
 C  -16.05728  -0.34544  3.47492
 C  -15.22968  0.06774  4.87626
 H  -14.61594  1.03090  4.69073
 H  -14.51820  -0.79767  5.16610
 H  -15.98845  0.24979  5.73131
 H  -15.31911  -0.82658  2.73378
 H  -16.49594  0.61437  3.01149
 H  -17.45503  -2.07622  2.80754
 H  -17.01599  -2.12983  4.63613
 C  17.42920  -3.03006  -4.69973
 C  18.27029  -1.93529  -4.49491
 C  17.64535  -0.83554  -3.82837
 C  16.30403  -1.06308  -3.50523
 S  15.96663  -2.59146  -4.05352
 H  19.36208  -1.88562  -4.82209
 C  18.65010  0.41941  -3.60450
 C  18.40422  1.98768  -4.18921
 C  19.78259  2.92793  -3.81722
 H  19.46146  4.03703  -3.86207
 H  20.09920  2.67436  -2.73715
 H  18.26871  1.95310  -5.32817
 H  17.48553  2.45116  -3.68350
 H  18.75236  0.56285  -2.44589
 H  19.71783  0.12754  -3.98519
 C  21.05310  2.69719  -4.82484
 C  21.27766  3.69172  -6.17769
 C  22.31119  4.99833  -5.92889
 H  21.78253  5.78397  -5.26542
 H  22.58119  5.46981  -6.95172
 H  23.27694  4.63239  -5.40694
 H  21.72125  3.04618  -7.02358
 H  20.25013  4.09907  -6.50062
 H  22.02479  2.78541  -4.19699
 H  20.99575  1.61557  -5.23854
 H  -25.04145  -2.67929  3.65562
 H  -22.38803  -4.27721  7.08950
 H  17.67386  -3.94831  -5.16938
 H  15.64160  -0.39794  -3.01292
*
