# ================================================================
# Orca input file made by Matty Jones
# ================================================================
! ZINDO/S 
! NOPOP
! NOMOPRINT
* xyz 0   1
 C  -18.65559  -10.61322  -3.09290
 C  -17.39633  -10.47807  -3.67932
 C  -16.31540  -10.90371  -2.84585
 C  -16.72318  -11.37735  -1.59497
 S  -18.37643  -11.24642  -1.58618
 H  -17.04116  -9.50342  -4.23222
 C  -14.79738  -10.80914  -3.39478
 C  -14.38362  -9.30806  -4.10561
 C  -12.85336  -9.02396  -4.79688
 H  -13.02741  -8.27995  -5.66813
 H  -12.50063  -10.03231  -5.24217
 H  -15.12780  -9.12504  -4.96618
 H  -14.53247  -8.51087  -3.28633
 H  -14.04329  -10.98359  -2.52599
 H  -14.61735  -11.62218  -4.20436
 C  -11.68386  -8.43052  -3.83549
 C  -10.21007  -8.00260  -4.56436
 C  -10.09783  -8.11228  -6.23993
 H  -10.27608  -9.20622  -6.56926
 H  -9.03921  -7.77627  -6.56908
 H  -10.88857  -7.42144  -6.72542
 H  -9.98616  -6.90864  -4.27397
 H  -9.39550  -8.68728  -4.11850
 H  -11.43598  -9.21723  -3.02273
 H  -12.08125  -7.47656  -3.31234
 C  11.83557  6.20951  1.59191
 C  12.44765  6.93827  2.61277
 C  11.60534  7.92725  3.21001
 C  10.32167  7.97968  2.65796
 S  10.29676  6.81601  1.47657
 H  13.53087  6.78193  2.94048
 C  12.04225  8.93242  4.39757
 C  13.23055  10.04621  3.95406
 C  13.68443  11.21009  5.09420
 H  12.80253  11.30814  5.84123
 H  13.79188  12.21837  4.53488
 H  14.16953  9.45404  3.64852
 H  12.82551  10.61762  3.03472
 H  11.15179  9.48309  4.89413
 H  12.53110  8.29400  5.25155
 C  15.04069  10.89402  5.92758
 C  16.41081  11.34102  5.03872
 C  16.93517  10.08968  4.04172
 H  18.08982  10.02759  4.08343
 H  16.59590  10.29967  2.95508
 H  16.48298  9.08610  4.39954
 H  16.15719  12.25311  4.38350
 H  17.25456  11.61317  5.77208
 H  15.10720  9.77315  6.19059
 H  15.04770  11.50955  6.90751
 H  -19.59282  -10.36368  -3.52060
 H  -16.10505  -11.74344  -0.81556
 H  12.26412  5.43220  1.01249
 H  9.53021  8.62755  2.93629
*
