# ================================================================
# Orca input file made by Matty Jones
# ================================================================
! ZINDO/S 
! NOPOP
! NOMOPRINT
* xyz 0   1
 C  18.59896  3.76004  -13.58619
 C  19.75701  4.41260  -13.16076
 C  20.57649  3.63545  -12.28397
 C  20.06294  2.36281  -12.01571
 S  18.64196  2.26743  -12.86551
 H  20.04288  5.47455  -13.46654
 C  22.01574  3.96751  -11.53868
 C  22.88555  5.18873  -10.60817
 C  24.00475  6.42385  -11.02694
 H  23.44834  7.43140  -10.98679
 H  24.35179  6.21547  -12.10721
 H  23.47099  4.54138  -9.84942
 H  22.03868  5.74302  -10.05743
 H  22.16549  3.12378  -10.75848
 H  22.80259  3.80706  -12.38424
 C  25.33041  6.49141  -10.04925
 C  25.53434  7.69624  -8.85962
 C  26.50789  8.99343  -9.33037
 H  25.87838  9.96372  -9.34604
 H  26.93999  8.79504  -10.38504
 H  27.37861  9.10973  -8.57507
 H  24.49510  8.10839  -8.58732
 H  26.01368  7.21039  -7.93189
 H  26.26744  6.55628  -10.72763
 H  25.39574  5.49440  -9.45974
 C  -19.33241  -3.82295  9.59639
 C  -20.31651  -4.41819  10.38704
 C  -20.95549  -3.52053  11.29818
 C  -20.47350  -2.20984  11.22662
 S  -19.29866  -2.23031  10.05626
 H  -20.50546  -5.54147  10.41854
 C  -22.12986  -3.98012  12.30532
 C  -23.62271  -4.42209  11.64165
 C  -23.92066  -5.93029  10.95218
 H  -22.92411  -6.17865  10.42277
 H  -24.71380  -5.71198  10.12446
 H  -23.86172  -3.62887  10.83546
 H  -24.38983  -4.31126  12.50416
 H  -22.35225  -3.13523  13.07416
 H  -21.76102  -4.90516  12.91478
 C  -24.42035  -7.28188  11.70765
 C  -24.71466  -8.50251  10.55784
 C  -26.29386  -8.63229  9.98845
 H  -26.48692  -9.72347  9.65234
 H  -26.43883  -7.92070  9.08719
 H  -27.03365  -8.34892  10.83043
 H  -24.38046  -9.51117  10.99365
 H  -24.10156  -8.24246  9.62139
 H  -25.39176  -7.08875  12.29661
 H  -23.60232  -7.66140  12.42844
 H  17.84990  4.13879  -14.23353
 H  20.49202  1.61550  -11.39844
 H  -18.73297  -4.29046  8.85767
 H  -20.79230  -1.37746  11.80031
*
