# ================================================================
# Orca input file made by Matty Jones
# ================================================================
! ZINDO/S 
! NOPOP
! NOMOPRINT
* xyz 0   1
 C  -2.05178  2.51897  -1.36459
 C  -0.85226  3.19197  -1.12771
 C  0.06505  2.47554  -0.29732
 C  -0.41256  1.23054  0.12362
 S  -1.92341  1.08375  -0.54436
 H  -0.63718  4.34113  -0.95536
 C  1.56174  2.83015  0.27793
 C  3.00811  3.50518  -0.33677
 C  3.33371  5.14980  -0.08921
 H  3.86941  5.54260  -1.03507
 H  2.32547  5.69698  0.02969
 H  3.88093  2.90857  0.12481
 H  2.99399  3.32986  -1.47553
 H  1.36444  3.52949  1.20134
 H  1.98116  1.82768  0.72621
 C  4.27814  5.45438  1.21711
 C  3.50576  5.67949  2.70770
 C  4.53529  6.08092  3.98323
 H  5.50697  5.45849  3.90910
 H  4.00379  5.85409  4.98571
 H  4.78916  7.20851  3.92563
 H  2.73528  6.52655  2.58787
 H  2.96702  4.69852  2.98111
 H  5.02160  4.57853  1.36038
 H  4.88968  6.41659  1.01430
 C  0.15061  -0.24921  0.64845
 C  -0.34519  -1.44290  0.12198
 C  0.24707  -2.61808  0.68094
 C  1.21543  -2.35099  1.65370
 S  1.28688  -0.69814  1.76937
 H  -1.09371  -1.51038  -0.73891
 C  -0.20887  -4.09864  0.19819
 C  -1.86737  -4.58552  0.29924
 C  -3.34508  -4.58259  -0.60052
 H  -3.82677  -5.60171  -0.30359
 H  -3.96073  -3.74704  -0.07004
 H  -1.73943  -5.72471  0.50171
 H  -2.19210  -4.07414  1.28878
 H  0.39632  -4.92514  0.74491
 H  0.03810  -4.19898  -0.94173
 C  -3.65664  -4.39993  -2.19428
 C  -3.86247  -5.83915  -3.07619
 C  -5.42170  -6.49074  -3.08471
 H  -5.50363  -7.28520  -2.24656
 H  -5.62284  -6.98994  -4.10959
 H  -6.19751  -5.65312  -2.90223
 H  -3.57905  -5.61361  -4.17091
 H  -3.14465  -6.62938  -2.64670
 H  -4.63116  -3.78780  -2.32112
 H  -2.78773  -3.81872  -2.68611
 H  -2.87193  2.85460  -1.94623
 H  1.78466  -3.05712  2.20231
*
