# ================================================================
# Orca input file made by Matty Jones
# ================================================================
! ZINDO/S 
! NOPOP
! NOMOPRINT
* xyz 0   1
 C  -11.41436  13.74570  24.31661
 C  -10.12303  14.19760  24.04065
 C  -9.08868  13.40147  24.62421
 C  -9.56565  12.31544  25.36471
 S  -11.21881  12.39624  25.25991
 H  -9.72275  15.29171  23.95306
 C  -7.48660  13.58022  24.54817
 C  -6.63671  14.91000  25.22483
 C  -6.22153  14.49646  26.83805
 H  -7.22253  14.43985  27.41597
 H  -5.76000  13.43436  26.80419
 H  -5.66743  15.07703  24.63609
 H  -7.28731  15.85143  25.22278
 H  -6.96197  12.64141  25.00265
 H  -7.19406  13.62246  23.41453
 C  -5.19723  15.46310  27.65843
 C  -5.90269  16.74232  28.50054
 C  -6.03551  18.12337  27.55355
 H  -6.19812  19.04327  28.23662
 H  -6.93542  18.00671  26.83547
 H  -5.06527  18.26473  26.93891
 H  -6.95310  16.42698  28.85090
 H  -5.24623  16.98591  29.41570
 H  -4.63054  14.82374  28.44325
 H  -4.41907  15.90401  26.92444
 C  8.91966  -10.93550  -29.22737
 C  8.15176  -11.90185  -28.57592
 C  8.91711  -12.84361  -27.81988
 C  10.29632  -12.61976  -27.87462
 S  10.49347  -11.28716  -28.84195
 H  7.01162  -11.94501  -28.62257
 C  8.31448  -14.09374  -26.96269
 C  7.02124  -14.04748  -25.83762
 C  6.68861  -15.53841  -25.04197
 H  6.50734  -15.24085  -23.93449
 H  7.69140  -16.11870  -25.09724
 H  6.07045  -13.74234  -26.40707
 H  7.27455  -13.26861  -25.03478
 H  9.19786  -14.55257  -26.33403
 H  7.98645  -14.90432  -27.71983
 C  5.50433  -16.58557  -25.45211
 C  5.48699  -18.07245  -24.61475
 C  6.84689  -18.44221  -23.69105
 H  7.78209  -18.43020  -24.37293
 H  6.72159  -19.49860  -23.23382
 H  6.96798  -17.66506  -22.84428
 H  5.34365  -18.91286  -25.38926
 H  4.58271  -18.05436  -23.89831
 H  5.58957  -16.83629  -26.57631
 H  4.47795  -16.08729  -25.25812
 H  -12.32756  14.17473  23.99166
 H  -8.99093  11.59199  25.88425
 H  8.57038  -10.14370  -29.83946
 H  11.05663  -13.18374  -27.39769
*
