# ================================================================
# Orca input file made by Matty Jones
# ================================================================
! ZINDO/S 
! NOPOP
! NOMOPRINT
* xyz 0   1
 C  -7.76291  -31.81709  -10.64074
 C  -6.58144  -31.14758  -10.31860
 C  -5.75288  -31.84260  -9.38335
 C  -6.28278  -33.06710  -8.96487
 S  -7.72822  -33.22321  -9.76283
 H  -6.29044  -30.12907  -10.74639
 C  -4.28049  -31.49208  -8.70353
 C  -3.30813  -30.21816  -7.94593
 C  -2.06404  -29.18466  -8.52856
 H  -2.47789  -28.66565  -9.47125
 H  -1.19180  -29.88248  -8.83333
 H  -2.81104  -30.75537  -7.05280
 H  -4.11404  -29.49148  -7.55368
 H  -4.22252  -32.20036  -7.78164
 H  -3.49809  -31.86052  -9.49817
 C  -1.46112  -28.03804  -7.51068
 C  -0.41276  -28.32754  -6.18403
 C  1.27113  -28.32167  -6.32235
 H  1.57154  -28.24575  -7.43489
 H  1.68913  -29.30370  -5.87141
 H  1.70566  -27.42116  -5.73786
 H  -0.66152  -27.49461  -5.41940
 H  -0.71723  -29.34632  -5.73838
 H  -2.36538  -27.47128  -7.06114
 H  -0.86409  -27.29628  -8.17604
 C  5.61769  33.85446  6.96118
 C  4.85796  32.77846  7.42260
 C  5.55235  31.92064  8.33157
 C  6.86704  32.32131  8.58921
 S  7.09786  33.69650  7.69143
 H  3.78441  32.56121  7.10124
 C  4.87489  30.62443  9.00982
 C  3.90349  29.52873  8.13428
 C  2.23735  29.87157  8.13228
 H  1.89499  29.88049  9.23724
 H  2.10891  30.93447  7.69795
 H  4.03997  28.48817  8.60693
 H  4.26681  29.51781  7.04353
 H  4.20923  30.97679  9.90394
 H  5.71925  29.94686  9.44971
 C  1.29279  28.83734  7.29461
 C  0.79765  27.43175  8.10428
 C  -0.63103  27.54268  8.98756
 H  -1.24603  28.45296  8.62656
 H  -0.37595  27.66752  10.10993
 H  -1.24815  26.57427  8.83830
 H  1.64235  27.12058  8.82373
 H  0.65198  26.61044  7.30711
 H  0.33044  29.39361  6.96984
 H  1.85655  28.49903  6.34274
 H  -8.52227  -31.49464  -11.30631
 H  -5.85100  -33.75213  -8.28083
 H  5.31273  34.61277  6.28622
 H  7.56911  31.84567  9.22518
*
