# ================================================================
# Orca input file made by Matty Jones
# ================================================================
! ZINDO/S 
! NOPOP
! NOMOPRINT
* xyz 0   1
 C  19.22080  3.79525  -7.96284
 C  18.53658  2.58264  -8.05934
 C  19.11538  1.52310  -7.29343
 C  20.26243  1.90097  -6.58858
 S  20.49683  3.50359  -6.94509
 H  17.46277  2.56101  -8.43886
 C  18.43752  0.08962  -7.33034
 C  16.75510  0.15140  -7.12111
 C  16.09330  0.34243  -8.65763
 H  15.12661  0.96338  -8.56228
 H  16.84404  0.89755  -9.33685
 H  16.38374  -0.81717  -6.63283
 H  16.47864  1.05776  -6.46765
 H  18.78668  -0.62690  -6.50170
 H  18.66929  -0.42607  -8.35736
 C  15.80718  -1.08892  -9.37293
 C  15.35395  -0.99223  -10.99611
 C  15.30474  0.55161  -11.66637
 H  15.02243  0.46504  -12.78617
 H  16.34282  1.05331  -11.57223
 H  14.51081  1.18660  -11.11449
 H  16.10970  -1.61488  -11.60568
 H  14.30359  -1.45621  -11.09725
 H  16.75715  -1.74718  -9.31262
 H  14.95135  -1.62497  -8.80559
 C  -19.08906  -4.16458  10.53250
 C  -18.98954  -3.02974  9.72621
 C  -19.48475  -1.83506  10.33595
 C  -19.97779  -2.02754  11.63024
 S  -19.77788  -3.64301  11.94762
 H  -18.79901  -3.10920  8.60235
 C  -19.37439  -0.48455  9.45238
 C  -17.81397  -0.44705  8.71235
 C  -17.27238  0.74170  7.63527
 H  -17.07770  1.69988  8.24933
 H  -18.12343  0.94307  6.88035
 H  -17.06770  -0.45215  9.59420
 H  -17.69771  -1.42520  8.11561
 H  -20.16790  -0.48142  8.61006
 H  -19.49804  0.46680  10.10055
 C  -15.90749  0.33612  6.82447
 C  -14.43023  1.08987  7.16521
 C  -13.40571  0.37691  8.29022
 H  -13.96486  0.24797  9.29393
 H  -12.48381  1.06187  8.44439
 H  -13.05673  -0.65421  7.89739
 H  -13.84809  1.14761  6.16772
 H  -14.66275  2.16021  7.52489
 H  -16.10048  0.49441  5.69206
 H  -15.71555  -0.79793  6.99321
 H  18.97626  4.70983  -8.43965
 H  20.85753  1.29084  -5.95835
 H  -18.78780  -5.15178  10.29107
 H  -20.39249  -1.29441  12.27378
*
