# ================================================================
# Orca input file made by Matty Jones
# ================================================================
! ZINDO/S 
! NOPOP
! NOMOPRINT
* xyz 0   1
 C  -16.99587  1.95111  0.28185
 C  -17.72567  0.81934  0.64846
 C  -17.08979  0.01105  1.64173
 C  -15.85163  0.50707  2.06155
 S  -15.61217  1.90001  1.19391
 H  -18.65200  0.45335  0.08696
 C  -17.74285  -1.35079  2.22943
 C  -18.73123  -2.45013  1.35164
 C  -20.39688  -2.17465  1.64077
 H  -20.57008  -2.51766  2.73547
 H  -20.56175  -1.03120  1.58700
 H  -18.46857  -3.52866  1.63561
 H  -18.54521  -2.27372  0.23053
 H  -18.36885  -1.07247  3.16892
 H  -16.86380  -2.03868  2.58679
 C  -21.51432  -2.92582  0.71102
 C  -22.21485  -4.46595  0.93436
 C  -21.90421  -5.41690  2.28400
 H  -22.30867  -4.88656  3.22909
 H  -20.76625  -5.59393  2.38514
 H  -22.44395  -6.43504  2.15540
 H  -21.88193  -5.09171  0.01872
 H  -23.35983  -4.31981  0.88391
 H  -22.43866  -2.21405  0.70391
 H  -21.08669  -2.94960  -0.36773
 C  24.50617  2.33096  -3.27627
 C  23.22918  1.80503  -3.07483
 C  22.38723  2.61546  -2.25106
 C  23.00249  3.78724  -1.79976
 S  24.53429  3.75931  -2.43477
 H  22.86961  0.82417  -3.53788
 C  20.90552  2.04014  -1.95054
 C  19.48889  2.98288  -1.91987
 C  18.12357  1.99190  -1.69076
 H  17.23722  2.53002  -2.20526
 H  18.32209  0.99915  -2.25159
 H  19.38643  3.54387  -2.91529
 H  19.49591  3.70782  -1.04144
 H  20.91608  1.50910  -0.90533
 H  20.67185  1.22127  -2.74910
 C  17.71504  1.66628  -0.15067
 C  16.38279  0.62827  -0.02809
 C  14.89809  1.41703  0.00365
 H  14.09173  0.69264  0.40947
 H  14.61775  1.74754  -1.06939
 H  14.96896  2.34443  0.69162
 H  16.49109  0.02006  0.94477
 H  16.39375  -0.08669  -0.93161
 H  18.60356  1.15761  0.38717
 H  17.45632  2.64692  0.40295
 H  -17.26868  2.68796  -0.42965
 H  -15.20209  0.08181  2.78325
 H  25.29229  1.90671  -3.84691
 H  22.57859  4.53649  -1.18127
*
