# ================================================================
# Orca input file made by Matty Jones
# ================================================================
! ZINDO/S 
! NOPOP
! NOMOPRINT
* xyz 0   1
 C  21.01321  -0.60739  -14.71454
 C  22.17126  0.04517  -14.28911
 C  22.99074  -0.73198  -13.41232
 C  22.47718  -2.00462  -13.14406
 S  21.05621  -2.10000  -13.99386
 H  22.45713  1.10712  -14.59489
 C  24.42999  -0.39992  -12.66703
 C  25.29979  0.82130  -11.73652
 C  26.41900  2.05642  -12.15529
 H  25.86259  3.06396  -12.11514
 H  26.76604  1.84804  -13.23555
 H  25.88524  0.17395  -10.97777
 H  24.45293  1.37559  -11.18578
 H  24.57974  -1.24365  -11.88682
 H  25.21683  -0.56037  -13.51259
 C  27.74466  2.12398  -11.17760
 C  27.94859  3.32881  -9.98797
 C  28.92213  4.62600  -10.45871
 H  28.29263  5.59628  -10.47439
 H  29.35424  4.42761  -11.51339
 H  29.79286  4.74230  -9.70342
 H  26.90935  3.74095  -9.71567
 H  28.42792  2.84296  -9.06024
 H  28.68168  2.18885  -11.85598
 H  27.80999  1.12697  -10.58809
 C  -20.66796  -1.57767  12.37197
 C  -21.79614  -2.29461  12.77336
 C  -22.87492  -1.47641  13.23277
 C  -22.59718  -0.10650  13.19396
 S  -21.05319  0.01857  12.60160
 H  -22.27805  -3.30723  12.39607
 C  -24.32944  -1.95921  13.74589
 C  -25.35265  -2.54673  12.52864
 C  -26.11732  -1.20175  11.78592
 H  -25.36911  -0.32146  11.90833
 H  -26.15220  -1.47162  10.65770
 H  -24.74545  -3.11779  11.74330
 H  -26.15999  -3.21626  12.99264
 H  -24.90493  -1.16875  14.35056
 H  -24.17477  -2.86884  14.47091
 C  -27.58874  -0.63487  12.20319
 C  -28.82806  -1.24204  11.22118
 C  -29.04417  -0.36753  9.79510
 H  -29.26302  0.73944  10.04753
 H  -29.93240  -0.81731  9.20513
 H  -28.08094  -0.43892  9.15736
 H  -29.81260  -1.20137  11.81753
 H  -28.58166  -2.33281  10.95028
 H  -27.82674  -0.92956  13.29474
 H  -27.60469  0.51815  12.11805
 H  20.26415  -0.22864  -15.36188
 H  22.90627  -2.75193  -12.52679
 H  -19.75694  -1.97076  11.99898
 H  -23.23908  0.68609  13.48270
*
