# ================================================================
# Orca input file made by Matty Jones
# ================================================================
! ZINDO/S 
! NOPOP
! NOMOPRINT
* xyz 0   1
 C  12.08413  10.71079  -1.29955
 C  13.37545  11.16269  -1.57551
 C  14.40981  10.36656  -0.99195
 C  13.93283  9.28053  -0.25145
 S  12.27968  9.36133  -0.35624
 H  13.77573  12.25680  -1.66310
 C  16.01189  10.54531  -1.06798
 C  16.86178  11.87509  -0.39132
 C  17.27695  11.46156  1.22189
 H  16.27596  11.40494  1.79982
 H  17.73849  10.39946  1.18804
 H  17.83106  12.04212  -0.98007
 H  16.21118  12.81653  -0.39338
 H  16.53652  9.60650  -0.61351
 H  16.30443  10.58755  -2.20163
 C  18.30126  12.42820  2.04228
 C  17.59579  13.70742  2.88439
 C  17.46298  15.08846  1.93740
 H  17.30036  16.00837  2.62047
 H  16.56306  14.97180  1.21932
 H  18.43322  15.22982  1.32275
 H  16.54539  13.39207  3.23474
 H  18.25225  13.95101  3.79954
 H  18.86795  11.78884  2.82710
 H  19.07941  12.86910  1.30829
 C  -11.10602  -12.27108  -0.13018
 C  -12.20729  -12.79040  -0.81239
 C  -13.35471  -11.93741  -0.80394
 C  -13.15849  -10.73847  -0.11157
 S  -11.59761  -10.79608  0.44587
 H  -12.04403  -13.05120  -1.98274
 C  -14.67085  -12.46347  -1.58070
 C  -16.26935  -12.08716  -1.19678
 C  -17.00098  -13.01902  0.00117
 H  -16.64216  -14.11084  -0.11843
 H  -16.63621  -12.61686  1.02339
 H  -16.32091  -10.98234  -0.88387
 H  -16.88765  -12.23200  -2.16433
 H  -14.65078  -13.63558  -1.57119
 H  -14.56131  -12.14927  -2.70856
 C  -18.62846  -12.96953  -0.05725
 C  -19.36354  -11.55555  0.49546
 C  -19.64980  -10.45318  -0.74841
 H  -18.86736  -9.60300  -0.69184
 H  -20.71328  -10.01271  -0.62584
 H  -19.57064  -10.98386  -1.77352
 H  -20.37142  -11.82888  0.98045
 H  -18.67809  -11.05792  1.27486
 H  -18.97708  -13.15173  -1.14536
 H  -19.04188  -13.83159  0.60041
 H  11.17092  11.13982  -1.62450
 H  14.50756  8.55708  0.26809
 H  -10.15573  -12.72410  -0.00643
 H  -13.86043  -9.95651  0.02780
*
