# ================================================================
# Orca input file made by Matty Jones
# ================================================================
! ZINDO/S 
! NOPOP
! NOMOPRINT
* xyz 0   1
 C  12.89923  12.38309  -3.89677
 C  12.21501  11.17048  -3.99328
 C  12.79381  10.11094  -3.22737
 C  13.94086  10.48881  -2.52252
 S  14.17526  12.09143  -2.87903
 H  11.14120  11.14885  -4.37280
 C  12.11595  8.67746  -3.26428
 C  10.43353  8.73924  -3.05504
 C  9.77173  8.93027  -4.59157
 H  8.80504  9.55122  -4.49622
 H  10.52247  9.48539  -5.27079
 H  10.06217  7.77067  -2.56677
 H  10.15707  9.64560  -2.40159
 H  12.46511  7.96094  -2.43564
 H  12.34772  8.16177  -4.29130
 C  9.48561  7.49892  -5.30687
 C  9.03238  7.59561  -6.93005
 C  8.98317  9.13945  -7.60031
 H  8.70086  9.05288  -8.72011
 H  10.02125  9.64115  -7.50617
 H  8.18924  9.77444  -7.04843
 H  9.78813  6.97296  -7.53962
 H  7.98202  7.13163  -7.03119
 H  10.43558  6.84066  -5.24656
 H  8.62978  6.96287  -4.73953
 C  -12.01343  -11.53708  0.94660
 C  -11.42174  -11.16985  2.15612
 C  -12.20147  -10.25869  2.93463
 C  -13.41498  -9.90465  2.33682
 S  -13.45872  -10.72605  0.89675
 H  -10.62571  -11.78547  2.67345
 C  -11.51661  -9.82479  4.32242
 C  -9.90932  -9.35570  3.99898
 C  -8.85453  -9.04199  5.26489
 H  -7.78982  -9.00971  4.79859
 H  -8.89991  -9.96357  5.96742
 H  -9.39549  -10.16851  3.36458
 H  -9.98842  -8.38815  3.36955
 H  -12.07467  -8.92236  4.78921
 H  -11.51198  -10.70370  5.07519
 C  -9.07328  -7.68335  6.11664
 C  -9.91673  -8.00394  7.54808
 C  -11.58880  -7.95971  7.40746
 H  -11.89433  -7.17041  6.61855
 H  -12.04497  -7.67914  8.43404
 H  -11.97573  -9.00239  7.08851
 H  -9.61529  -9.05075  7.92691
 H  -9.59867  -7.21374  8.32521
 H  -9.67492  -6.91203  5.50244
 H  -8.05132  -7.22311  6.39917
 H  12.65469  13.29767  -4.37359
 H  14.53596  9.87868  -1.89229
 H  -11.62148  -12.19562  0.21427
 H  -14.15251  -9.24863  2.72319
*
