# ================================================================
# Orca input file made by Matty Jones
# ================================================================
! ZINDO/S 
! NOPOP
! NOMOPRINT
* xyz 0   1
 C  -1.67083  1.90804  -0.56481
 C  -0.47789  2.14710  -1.24866
 C  0.68824  1.67007  -0.57275
 C  0.41474  1.05121  0.65098
 S  -1.23235  1.12576  0.82979
 H  -0.26712  3.26074  -1.60131
 C  2.10389  1.93383  -1.33686
 C  2.06753  3.50813  -2.09951
 C  3.03182  4.56968  -3.06166
 H  3.47621  5.37550  -2.37039
 H  3.87042  3.96392  -3.55833
 H  1.23566  3.29427  -2.88410
 H  1.69901  4.19671  -1.25256
 H  2.98567  1.94059  -0.58716
 H  2.29117  1.14507  -2.15603
 C  2.05616  5.26941  -4.18422
 C  2.50171  6.64640  -5.07364
 C  3.20726  6.52528  -6.59707
 H  3.38258  7.59451  -7.01078
 H  2.49740  5.95141  -7.30788
 H  4.21826  5.97196  -6.51329
 H  1.52361  7.22990  -5.22859
 H  3.22494  7.24878  -4.40996
 H  1.82949  4.45821  -4.98385
 H  1.05619  5.54627  -3.66502
 C  0.97404  -0.09098  1.71953
 C  0.21430  -1.16699  2.18095
 C  0.90869  -2.02481  3.08992
 C  2.22338  -1.62413  3.34756
 S  2.45420  -0.24895  2.44978
 H  -0.85924  -1.38424  1.85959
 C  0.23123  -3.32102  3.76817
 C  -0.74016  -4.41672  2.89263
 C  -2.40631  -4.07388  2.89063
 H  -2.74866  -4.06496  3.99559
 H  -2.53475  -3.01098  2.45630
 H  -0.60369  -5.45727  3.36528
 H  -0.37685  -4.42764  1.80188
 H  -0.43443  -2.96866  4.66229
 H  1.07559  -3.99858  4.20806
 C  -3.35087  -5.10811  2.05296
 C  -3.84601  -6.51370  2.86263
 C  -5.27469  -6.40276  3.74591
 H  -5.88969  -5.49248  3.38491
 H  -5.01961  -6.27793  4.86828
 H  -5.89181  -7.37118  3.59665
 H  -3.00131  -6.82487  3.58208
 H  -3.99168  -7.33500  2.06546
 H  -4.31321  -4.55183  1.72819
 H  -2.78711  -5.44641  1.10109
 H  -2.65058  2.17111  -0.87219
 H  2.92545  -2.09978  3.98353
*
