# ================================================================
# Orca input file made by Matty Jones
# ================================================================
! ZINDO/S 
! NOPOP
! NOMOPRINT
* xyz 0   1
 C  -18.18066  -5.20370  -0.31135
 C  -16.98171  -4.50747  -0.15105
 C  -16.15862  -4.99874  0.90981
 C  -16.71041  -6.08838  1.59064
 S  -18.16715  -6.38251  0.85455
 H  -16.79089  -3.51948  -0.68790
 C  -14.75615  -4.23164  1.12545
 C  -14.03142  -3.87301  -0.38472
 C  -12.60061  -2.99930  -0.57789
 H  -12.45068  -2.40705  0.40944
 H  -12.80377  -2.23151  -1.42516
 H  -13.85229  -4.90018  -0.88323
 H  -14.79923  -3.28227  -1.01105
 H  -14.92451  -3.23320  1.68673
 H  -14.01225  -4.88677  1.72742
 C  -11.21779  -3.77832  -0.92015
 C  -9.95564  -2.68417  -1.20817
 C  -9.12804  -2.27099  0.19318
 H  -8.51430  -1.30783  0.00764
 H  -8.41655  -3.13640  0.48301
 H  -9.88680  -2.08893  1.04823
 H  -9.21746  -3.16530  -1.94931
 H  -10.39430  -1.72436  -1.67160
 H  -11.35339  -4.41494  -1.87555
 H  -10.91435  -4.46855  -0.04696
 C  17.45857  3.62162  -2.46152
 C  16.56576  2.63583  -2.03843
 C  15.50717  3.12341  -1.21022
 C  15.56439  4.50116  -0.97816
 S  16.90289  5.03603  -1.79838
 H  16.77671  1.53881  -1.68459
 C  14.42608  2.03908  -0.69520
 C  12.79576  2.25111  -0.26639
 C  12.03260  3.72127  0.05042
 H  12.60439  4.58700  -0.44458
 H  10.95241  3.68752  -0.35144
 H  12.19423  1.80091  -1.15249
 H  12.62696  1.56756  0.65216
 H  14.88504  1.53102  0.25678
 H  14.36355  1.20106  -1.51575
 C  12.04409  3.83935  1.67553
 C  11.33250  5.18219  2.36416
 C  10.57095  6.25831  1.32510
 H  10.02920  5.66641  0.48994
 H  11.36433  6.95573  0.85124
 H  9.78989  6.89668  1.88699
 H  10.62417  4.79722  3.17600
 H  12.20641  5.69863  2.87330
 H  11.48195  2.91919  2.11204
 H  13.14039  3.78660  2.04878
 H  -18.93981  -5.01801  -1.02747
 H  -16.28639  -6.61594  2.40641
 H  18.31195  3.49316  -3.07702
 H  14.89285  5.08207  -0.39922
*
