# ================================================================
# Orca input file made by Matty Jones
# ================================================================
! ZINDO/S 
! NOPOP
! NOMOPRINT
* xyz 0   1
 C  -6.77814  15.04118  27.57151
 C  -7.21279  14.17259  26.56924
 C  -7.00299  12.78934  26.86399
 C  -6.39962  12.56454  28.10526
 S  -6.16085  14.06792  28.76349
 H  -6.97400  14.30332  25.40991
 C  -7.47982  11.75150  25.71553
 C  -8.51648  10.38767  25.77530
 C  -10.15811  10.75898  25.47552
 H  -10.53411  11.27837  26.44114
 H  -10.15872  11.54061  24.61991
 H  -8.16907  9.63776  24.97804
 H  -8.43749  9.92299  26.82250
 H  -6.49316  11.28798  25.27795
 H  -7.95159  12.38290  24.84659
 C  -11.23992  9.59300  25.08159
 C  -11.50983  9.39407  23.41207
 C  -12.69314  8.27365  22.97699
 H  -13.74001  8.73974  23.13804
 H  -12.58344  7.32460  23.62871
 H  -12.56207  7.99633  21.86061
 H  -11.82054  10.41654  22.98163
 H  -10.51606  9.05877  22.93631
 H  -10.88251  8.57405  25.49023
 H  -12.26280  9.85078  25.55497
 C  10.83608  -7.00534  -28.50526
 C  10.06818  -7.97169  -27.85381
 C  10.83353  -8.91345  -27.09778
 C  12.21273  -8.68961  -27.15251
 S  12.40989  -7.35701  -28.11984
 H  8.92804  -8.01486  -27.90046
 C  10.23090  -10.16359  -26.24058
 C  8.93766  -10.11733  -25.11552
 C  8.60502  -11.60826  -24.31987
 H  8.42376  -11.31070  -23.21238
 H  9.60781  -12.18854  -24.37513
 H  7.98687  -9.81218  -25.68496
 H  9.19097  -9.33846  -24.31267
 H  11.11428  -10.62242  -25.61192
 H  9.90287  -10.97417  -26.99772
 C  7.42075  -12.65542  -24.73001
 C  7.40340  -14.14230  -23.89264
 C  8.76330  -14.51205  -22.96895
 H  9.69851  -14.50005  -23.65083
 H  8.63800  -15.56845  -22.51171
 H  8.88439  -13.73491  -22.12218
 H  7.26006  -14.98270  -24.66716
 H  6.49912  -14.12421  -23.17620
 H  7.50599  -12.90613  -25.85421
 H  6.39436  -12.15713  -24.53601
 H  -6.83144  16.09984  27.57082
 H  -6.14762  11.62910  28.53542
 H  10.48680  -6.21355  -29.11736
 H  12.97304  -9.25359  -26.67559
*
