# ================================================================
# Orca input file made by Matty Jones
# ================================================================
! ZINDO/S 
! NOPOP
! NOMOPRINT
* xyz 0   1
 C  -13.32929  16.52060  21.30537
 C  -12.17124  17.17316  21.73080
 C  -11.35176  16.39601  22.60759
 C  -11.86532  15.12336  22.87585
 S  -13.28629  15.02799  22.02605
 H  -11.88537  18.23511  21.42502
 C  -9.91251  16.72807  23.35288
 C  -9.04271  17.94929  24.28340
 C  -7.92350  19.18441  23.86462
 H  -8.47992  20.19195  23.90477
 H  -7.57646  18.97602  22.78436
 H  -8.45726  17.30194  25.04214
 H  -9.88958  18.50358  24.83414
 H  -9.76276  15.88434  24.13309
 H  -9.12567  16.56762  22.50732
 C  -6.59784  19.25197  24.84231
 C  -6.39391  20.45679  26.03194
 C  -5.42037  21.75399  25.56120
 H  -6.04988  22.72427  25.54552
 H  -4.98826  21.55560  24.50653
 H  -4.54964  21.87029  26.31649
 H  -7.43315  20.86894  26.30425
 H  -5.91458  19.97095  26.95968
 H  -5.66082  19.31683  24.16393
 H  -6.53251  18.25495  25.43183
 C  10.38789  -14.34702  -27.02708
 C  9.61999  -15.31337  -26.37563
 C  10.38534  -16.25513  -25.61959
 C  11.76455  -16.03129  -25.67433
 S  11.96170  -14.69869  -26.64166
 H  8.47985  -15.35654  -26.42228
 C  9.78271  -17.50527  -24.76239
 C  8.48947  -17.45901  -23.63733
 C  8.15683  -18.94994  -22.84168
 H  7.97557  -18.65238  -21.73420
 H  9.15962  -19.53022  -22.89695
 H  7.53868  -17.15386  -24.20677
 H  8.74278  -16.68014  -22.83449
 H  10.66609  -17.96410  -24.13374
 H  9.45468  -18.31585  -25.51954
 C  6.97256  -19.99710  -23.25182
 C  6.95521  -21.48398  -22.41446
 C  8.31511  -21.85373  -21.49076
 H  9.25032  -21.84172  -22.17264
 H  8.18981  -22.91013  -21.03353
 H  8.43620  -21.07659  -20.64399
 H  6.81187  -22.32438  -23.18897
 H  6.05093  -21.46589  -21.69802
 H  7.05780  -20.24781  -24.37602
 H  5.94617  -19.49881  -23.05782
 H  -14.07836  16.89935  20.65803
 H  -11.43623  14.37606  23.49312
 H  10.03861  -13.55523  -27.63917
 H  12.52486  -16.59527  -25.19740
*
