# ================================================================
# Orca input file made by Matty Jones
# ================================================================
! ZINDO/S 
! NOPOP
! NOMOPRINT
* xyz 0   1
 C  11.77850  4.72969  -1.87557
 C  13.00251  5.36738  -1.66811
 C  13.90953  4.63498  -0.84035
 C  13.39914  3.41279  -0.39193
 S  11.87397  3.30420  -1.03417
 H  13.68272  5.94047  -2.46560
 C  15.37395  5.23508  -0.49969
 C  15.52044  6.78994  0.20613
 C  17.05841  7.51954  0.41976
 H  16.77356  8.64457  0.57927
 H  17.58198  7.43978  -0.60828
 H  14.90630  7.50282  -0.45654
 H  15.04560  6.71626  1.25216
 H  15.93109  4.51098  0.21653
 H  15.99413  5.28913  -1.48760
 C  18.14262  7.20136  1.59814
 C  19.73835  7.61815  1.14842
 C  20.39238  9.12468  1.51407
 H  20.39136  9.27082  2.66111
 H  19.77100  9.95524  1.00499
 H  21.48350  9.16009  1.12358
 H  20.43475  6.84048  1.64061
 H  19.79494  7.52119  -0.00065
 H  18.12920  6.07532  1.84930
 H  17.88840  7.80229  2.55156
 C  -17.58969  -8.77006  -3.92064
 C  -16.99801  -8.40283  -2.71112
 C  -17.77773  -7.49167  -1.93261
 C  -18.99124  -7.13764  -2.53042
 S  -19.03498  -7.95904  -3.97049
 H  -16.20198  -9.01845  -2.19378
 C  -17.09287  -7.05777  -0.54482
 C  -15.48559  -6.58868  -0.86826
 C  -14.43080  -6.27497  0.39765
 H  -13.36609  -6.24269  -0.06865
 H  -14.47618  -7.19655  1.10018
 H  -14.97176  -7.40149  -1.50266
 H  -15.56468  -5.62113  -1.49769
 H  -17.65093  -6.15535  -0.07803
 H  -17.08825  -7.93669  0.20795
 C  -14.64955  -4.91633  1.24940
 C  -15.49299  -5.23693  2.68084
 C  -17.16507  -5.19270  2.54022
 H  -17.47060  -4.40340  1.75131
 H  -17.62123  -4.91212  3.56680
 H  -17.55200  -6.23538  2.22127
 H  -15.19155  -6.28374  3.05968
 H  -15.17493  -4.44672  3.45797
 H  -15.25118  -4.14502  0.63520
 H  -13.62759  -4.45610  1.53193
 H  10.96036  5.08234  -2.44993
 H  13.88529  2.70410  0.22857
 H  -17.19774  -9.42860  -4.65297
 H  -19.72877  -6.48161  -2.14405
*
