# ================================================================
# Orca input file made by Matty Jones
# ================================================================
! ZINDO/S 
! NOPOP
! NOMOPRINT
* xyz 0   1
 C  21.37386  1.83525  29.71449
 C  21.73521  0.66555  29.04432
 C  23.03790  0.18001  29.37825
 C  23.70858  0.97030  30.31683
 S  22.66912  2.21076  30.67906
 H  20.91487  -0.10147  28.77447
 C  23.41258  -1.16275  28.56057
 C  22.84539  -1.13619  26.89593
 C  21.92837  0.15384  26.19429
 H  20.99875  0.33573  26.85181
 H  22.62055  1.07716  26.24009
 H  23.79237  -1.22666  26.25054
 H  22.19518  -2.07656  26.78045
 H  22.91488  -2.08553  29.05602
 H  24.55792  -1.31667  28.52458
 C  21.24757  0.08544  24.70247
 C  19.60264  -0.36208  24.69827
 C  18.47462  0.89217  24.79592
 H  18.89262  1.73848  25.46360
 H  17.49238  0.48469  25.25402
 H  18.26386  1.30008  23.73387
 H  19.42525  -1.06481  25.59357
 H  19.40198  -0.93156  23.71638
 H  21.31614  1.12556  24.20449
 H  21.81530  -0.68096  24.05454
 C  -16.65490  -0.44740  -26.73408
 C  -17.78308  -1.16434  -26.33270
 C  -18.86186  -0.34615  -25.87328
 C  -18.58411  1.02377  -25.91209
 S  -17.04012  1.14883  -26.50446
 H  -18.26498  -2.17697  -26.70999
 C  -20.31637  -0.82894  -25.36016
 C  -21.33959  -1.41646  -26.57742
 C  -22.10426  -0.07148  -27.32014
 H  -21.35604  0.80881  -27.19773
 H  -22.13913  -0.34135  -28.44836
 H  -20.73238  -1.98752  -27.36275
 H  -22.14693  -2.08599  -26.11341
 H  -20.89186  -0.03848  -24.75550
 H  -20.16171  -1.73857  -24.63515
 C  -23.57567  0.49539  -26.90287
 C  -24.81499  -0.11177  -27.88488
 C  -25.03110  0.76274  -29.31096
 H  -25.24996  1.86971  -29.05852
 H  -25.91933  0.31295  -29.90092
 H  -24.06788  0.69135  -29.94869
 H  -25.79954  -0.07110  -27.28853
 H  -24.56860  -1.20254  -28.15578
 H  -23.81367  0.20071  -25.81131
 H  -23.59163  1.64842  -26.98800
 H  20.46335  2.37065  29.62557
 H  24.67833  0.81008  30.71371
 H  -15.74388  -0.84049  -27.10708
 H  -19.22602  1.81636  -25.62336
*
