# ================================================================
# Orca input file made by Matty Jones
# ================================================================
! ZINDO/S 
! NOPOP
! NOMOPRINT
* xyz 0   1
 C  12.25137  12.08405  0.61976
 C  11.75557  10.89036  0.09329
 C  12.34783  9.71518  0.65225
 C  13.31619  9.98227  1.62501
 S  13.38764  11.63512  1.74068
 H  11.00705  10.82287  -0.76760
 C  11.89189  8.23462  0.16949
 C  10.23339  7.74774  0.27055
 C  8.75568  7.75067  -0.62921
 H  8.27399  6.73155  -0.33228
 H  8.14003  8.58622  -0.09874
 H  10.36133  6.60855  0.47301
 H  9.90866  8.25912  1.26009
 H  12.49708  7.40812  0.71622
 H  12.13886  8.13428  -0.97042
 C  8.44412  7.93333  -2.22297
 C  8.23829  6.49411  -3.10488
 C  6.67906  5.84252  -3.11341
 H  6.59713  5.04806  -2.27525
 H  6.47792  5.34332  -4.13828
 H  5.90325  6.68014  -2.93092
 H  8.52171  6.71965  -4.19960
 H  8.95611  5.70388  -2.67539
 H  7.46960  8.54546  -2.34981
 H  9.31303  8.51454  -2.71480
 C  -12.04899  -11.85440  -2.30204
 C  -10.87216  -11.31419  -1.78134
 C  -11.07650  -10.19380  -0.91692
 C  -12.42148  -9.84756  -0.75423
 S  -13.27505  -10.93065  -1.67551
 H  -9.85554  -11.77303  -2.01019
 C  -9.70034  -9.55449  -0.35789
 C  -9.32432  -7.89873  -0.38646
 C  -9.85864  -7.00784  0.94480
 H  -10.94531  -7.29404  1.18147
 H  -9.80144  -5.87907  0.70743
 H  -8.17325  -7.80275  -0.43535
 H  -9.78857  -7.44433  -1.33447
 H  -9.65954  -9.82264  0.76059
 H  -8.77395  -10.08604  -0.86434
 C  -8.92304  -7.36284  2.22378
 C  -9.39336  -6.61947  3.65909
 C  -8.48316  -5.25868  4.02423
 H  -8.75519  -4.89684  5.08964
 H  -8.70550  -4.42114  3.25789
 H  -7.35887  -5.53375  3.98662
 H  -10.49640  -6.29634  3.55511
 H  -9.29671  -7.37655  4.52043
 H  -7.83245  -7.04738  1.99808
 H  -8.94168  -8.50605  2.40578
 H  11.96244  13.06979  0.35816
 H  13.88542  9.27614  2.17362
 H  -12.13980  -12.68095  -2.95943
 H  -12.81341  -9.05812  -0.16536
*
