# ================================================================
# Orca input file made by Matty Jones
# ================================================================
! ZINDO/S 
! NOPOP
! NOMOPRINT
* xyz 0   1
 C  18.59477  -3.84246  -16.34606
 C  19.77624  -3.17294  -16.02392
 C  20.60480  -3.86796  -15.08867
 C  20.07490  -5.09247  -14.67019
 S  18.62945  -5.24857  -15.46815
 H  20.06724  -2.15444  -16.45171
 C  22.07718  -3.51745  -14.40885
 C  23.04955  -2.24353  -13.65125
 C  24.29364  -1.21003  -14.23388
 H  23.87979  -0.69102  -15.17657
 H  25.16588  -1.90785  -14.53865
 H  23.54664  -2.78074  -12.75812
 H  22.24364  -1.51684  -13.25900
 H  22.13516  -4.22573  -13.48696
 H  22.85958  -3.88589  -15.20349
 C  24.89656  -0.06341  -13.21600
 C  25.94492  -0.35291  -11.88935
 C  27.62881  -0.34704  -12.02767
 H  27.92921  -0.27111  -13.14021
 H  28.04681  -1.32907  -11.57673
 H  28.06334  0.55348  -11.44318
 H  25.69616  0.48002  -11.12472
 H  25.64045  -1.37169  -11.44370
 H  23.99230  0.50336  -12.76645
 H  25.49359  0.67835  -13.88136
 C  -25.52032  -2.00656  12.19485
 C  -24.75348  -1.07368  12.89455
 C  -25.52271  -0.08764  13.58756
 C  -26.90394  -0.24269  13.43430
 S  -27.09801  -1.57292  12.46309
 H  -23.61559  -1.11625  12.96368
 C  -24.83049  1.07798  14.47329
 C  -23.43925  1.90267  13.97878
 C  -22.94713  3.12054  15.06154
 H  -23.25589  2.79172  16.12652
 H  -23.52163  4.08541  14.78869
 H  -22.58486  1.13534  13.89617
 H  -23.63948  2.38559  12.95594
 H  -25.60573  1.94026  14.62631
 H  -24.54953  0.64207  15.51377
 C  -21.34394  3.40681  15.02994
 C  -20.76264  4.08630  13.59791
 C  -20.75500  5.76183  13.50265
 H  -19.93802  6.18490  14.20421
 H  -21.79109  6.17029  13.81550
 H  -20.52790  6.07525  12.41102
 H  -19.67486  3.72309  13.46162
 H  -21.40611  3.68289  12.72961
 H  -20.77181  2.41763  15.21019
 H  -21.07781  4.14212  15.88502
 H  17.83540  -3.52000  -17.01163
 H  20.50668  -5.77750  -13.98615
 H  -25.16833  -2.82064  11.61436
 H  -27.66714  0.36315  13.85153
*
