# ================================================================
# Orca input file made by Matty Jones
# ================================================================
! ZINDO/S 
! NOPOP
! NOMOPRINT
* xyz 0   1
 C  -1.28326  2.15934  -1.10319
 C  -0.03386  2.77803  -1.16745
 C  0.94746  2.20344  -0.30078
 C  0.47053  1.12560  0.45163
 S  -1.11787  0.94282  0.01117
 H  0.13978  3.76711  -1.69748
 C  2.40239  2.89464  -0.34125
 C  2.98090  3.24842  -1.93195
 C  2.68496  4.69635  -2.82536
 H  2.58336  5.52109  -2.01743
 H  3.66544  4.88336  -3.41518
 H  4.12968  3.18265  -1.85042
 H  2.59455  2.39566  -2.60371
 H  2.40082  3.89094  0.25312
 H  3.19015  2.17929  0.12587
 C  1.44608  4.89283  -3.87876
 C  1.51014  6.31217  -4.82083
 C  2.08312  6.24806  -6.40506
 H  1.43322  5.51414  -7.01895
 H  3.18398  5.89591  -6.40479
 H  2.01408  7.30669  -6.87112
 H  0.46374  6.78057  -4.84286
 H  2.25779  6.98667  -4.26953
 H  1.41342  3.99714  -4.60583
 H  0.44248  4.96447  -3.31727
 C  0.98293  0.02160  1.57788
 C  0.25314  -1.11017  1.94450
 C  0.88901  -1.91846  2.93777
 C  2.12718  -1.42244  3.35759
 S  2.36664  -0.02950  2.48995
 H  -0.67320  -1.47617  1.38300
 C  0.23596  -3.28031  3.52547
 C  -0.75242  -4.37965  2.64767
 C  -2.41807  -4.10416  2.93681
 H  -2.59128  -4.44718  4.03151
 H  -2.58295  -2.96072  2.88304
 H  -0.48976  -5.45817  2.93164
 H  -0.56640  -4.20323  1.52657
 H  -0.39005  -3.00198  4.46496
 H  1.11500  -3.96820  3.88283
 C  -3.53552  -4.85534  2.00706
 C  -4.23604  -6.39546  2.23040
 C  -3.92540  -7.34641  3.58004
 H  -4.32986  -6.81607  4.52513
 H  -2.78744  -7.52344  3.68117
 H  -4.46515  -8.36456  3.45144
 H  -3.90312  -7.02123  1.31476
 H  -5.38102  -6.24933  2.17995
 H  -4.45985  -4.14356  1.99995
 H  -3.10788  -4.87911  0.92831
 H  -2.15424  2.41358  -1.65125
 H  2.77672  -1.84771  4.07928
*
