# ================================================================
# Orca input file made by Matty Jones
# ================================================================
! ZINDO/S 
! NOPOP
! NOMOPRINT
* xyz 0   1
 C  15.99170  4.56398  5.76642
 C  17.18463  4.80304  5.08257
 C  18.35077  4.32602  5.75847
 C  18.07727  3.70716  6.98220
 S  16.43018  3.78171  7.16101
 H  17.39541  5.91669  4.72992
 C  19.76641  4.58978  4.99437
 C  19.73006  6.16408  4.23171
 C  20.69435  7.22562  3.26957
 H  21.13874  8.03145  3.96083
 H  21.53295  6.61986  2.77290
 H  18.89818  5.95022  3.44712
 H  19.36154  6.85266  5.07867
 H  20.64820  4.59654  5.74407
 H  19.95370  3.80102  4.17519
 C  19.71869  7.92536  2.14700
 C  20.16423  9.30235  1.25759
 C  20.86979  9.18123  -0.26584
 H  21.04511  10.25046  -0.67956
 H  20.15993  8.60735  -0.97665
 H  21.88078  8.62791  -0.18206
 H  19.18614  9.88585  1.10263
 H  20.88747  9.90473  1.92126
 H  19.49201  7.11416  1.34737
 H  18.71871  8.20221  2.66621
 C  -14.29824  -6.84759  -3.41369
 C  -15.42582  -7.39596  -4.02666
 C  -16.57646  -6.54773  -3.99822
 C  -16.35634  -5.32340  -3.35957
 S  -14.77194  -5.35436  -2.87057
 H  -15.87543  -8.43664  -3.54907
 C  -17.92444  -7.09870  -4.68590
 C  -19.49941  -6.72530  -4.29606
 C  -20.14918  -7.64393  -3.05079
 H  -19.82071  -8.74238  -3.21047
 H  -19.69688  -7.26341  -2.05693
 H  -19.54830  -5.61762  -3.99795
 H  -20.14524  -6.89027  -5.24237
 H  -17.90096  -8.27570  -4.65411
 H  -17.83958  -6.81946  -5.82439
 C  -21.77309  -7.57099  -2.98890
 C  -22.41033  -6.16042  -2.32406
 C  -22.75923  -4.99885  -3.49323
 H  -21.78608  -4.68699  -4.03422
 H  -23.23394  -4.07594  -2.98161
 H  -23.50411  -5.44397  -4.25943
 H  -23.37887  -6.41677  -1.75720
 H  -21.63295  -5.72735  -1.59784
 H  -22.20360  -7.68885  -4.05672
 H  -22.15747  -8.45413  -2.34310
 H  15.01195  4.82706  5.45904
 H  18.77632  3.27985  7.65475
 H  -13.34088  -7.29202  -3.31597
 H  -17.05573  -4.53961  -3.21770
*
