# ================================================================
# Orca input file made by Matty Jones
# ================================================================
! ZINDO/S 
! NOPOP
! NOMOPRINT
* xyz 0   1
 C  12.78246  12.46158  -3.78106
 C  12.13019  11.23641  -3.92733
 C  12.72367  10.16693  -3.18689
 C  13.85026  10.54955  -2.45222
 S  14.04996  12.16817  -2.75322
 H  11.02907  11.22152  -4.21969
 C  12.01683  8.72621  -3.31137
 C  10.33128  8.76326  -3.14761
 C  9.66530  9.01448  -4.67392
 H  8.56852  9.35194  -4.53648
 H  10.22367  9.80255  -5.29770
 H  9.95651  7.77071  -2.70794
 H  10.03855  9.63451  -2.45507
 H  12.31567  7.87562  -2.58996
 H  12.25883  8.31573  -4.38201
 C  9.74280  7.61498  -5.49874
 C  9.07107  7.73937  -7.03173
 C  7.44967  7.30811  -6.99042
 H  6.84067  8.04168  -7.64578
 H  7.05802  7.35020  -5.90165
 H  7.33644  6.23084  -7.39863
 H  9.16439  8.82654  -7.40191
 H  9.63670  7.03662  -7.74805
 H  10.84408  7.29026  -5.63771
 H  9.19112  6.78468  -4.91190
 C  -11.94173  -11.43392  0.78365
 C  -11.33388  -10.99538  1.96098
 C  -12.15244  -10.13226  2.75423
 C  -13.41301  -9.88802  2.20048
 S  -13.44795  -10.74084  0.77855
 H  -10.41141  -11.49232  2.44064
 C  -11.47349  -9.55082  4.08790
 C  -9.93000  -8.97617  3.74732
 C  -8.88112  -8.38238  4.91857
 H  -8.99116  -7.22884  4.93708
 H  -7.80198  -8.63412  4.57841
 H  -9.34352  -9.83216  3.23901
 H  -10.08861  -8.12323  2.98228
 H  -12.13233  -8.70835  4.54780
 H  -11.41371  -10.40563  4.87634
 C  -9.12511  -8.97605  6.40754
 C  -10.27574  -8.09880  7.26652
 C  -9.59935  -6.75070  8.00694
 H  -8.83646  -7.09126  8.80663
 H  -10.43811  -6.12787  8.50497
 H  -9.06299  -6.10871  7.20724
 H  -11.10631  -7.75557  6.54733
 H  -10.72230  -8.78219  8.07938
 H  -8.13020  -8.95204  6.99948
 H  -9.48362  -10.07454  6.34155
 H  12.52237  13.38496  -4.23198
 H  14.45087  9.93393  -1.83265
 H  -11.52773  -12.07491  0.04789
 H  -14.18468  -9.28421  2.60488
*
