# ================================================================
# Orca input file made by Matty Jones
# ================================================================
! ZINDO/S 
! NOPOP
! NOMOPRINT
* xyz 0   1
 C  14.49977  2.71124  -7.24075
 C  15.79109  3.16315  -7.51671
 C  16.82545  2.36702  -6.93314
 C  16.34847  1.28098  -6.19265
 S  14.69532  1.36178  -6.29744
 H  16.19137  4.25726  -7.60429
 C  18.42753  2.54577  -7.00918
 C  19.27742  3.87554  -6.33252
 C  19.69259  3.46201  -4.71931
 H  18.69160  3.40540  -4.14138
 H  20.15413  2.39991  -4.75316
 H  20.24670  4.04258  -6.92127
 H  18.62682  4.81698  -6.33458
 H  18.95216  1.60696  -6.55471
 H  18.72007  2.58801  -8.14283
 C  20.71690  4.42865  -3.89892
 C  20.01143  5.70787  -3.05681
 C  19.87862  7.08892  -4.00380
 H  19.71600  8.00882  -3.32073
 H  18.97870  6.97225  -4.72188
 H  20.84886  7.23028  -4.61845
 H  18.96103  5.39253  -2.70646
 H  20.66789  5.95146  -2.14166
 H  21.28359  3.78929  -3.11410
 H  21.49505  4.86955  -4.63291
 C  -21.03492  -7.49574  3.82886
 C  -20.14910  -6.51523  4.27810
 C  -20.73533  -5.56258  5.16862
 C  -22.09089  -5.79199  5.42385
 S  -22.48720  -7.14246  4.54661
 H  -19.04807  -6.47489  3.99245
 C  -19.88847  -4.32482  5.78020
 C  -18.95773  -3.41143  4.71761
 C  -18.27534  -2.14250  5.60047
 H  -18.22174  -2.44409  6.71283
 H  -19.02201  -1.25573  5.51637
 H  -18.13596  -4.06538  4.25164
 H  -19.64091  -2.98256  3.89723
 H  -20.46817  -3.52301  6.36708
 H  -19.13584  -4.78963  6.54650
 C  -16.83434  -1.65634  5.04110
 C  -15.51899  -2.41464  5.79087
 C  -15.87693  -3.44704  7.07499
 H  -16.35757  -2.84091  7.93521
 H  -14.89623  -3.93429  7.45237
 H  -16.60388  -4.27272  6.71895
 H  -14.97028  -3.03593  4.98967
 H  -14.81710  -1.59031  6.18662
 H  -16.72400  -0.51669  5.20837
 H  -16.76246  -1.87178  3.90631
 H  13.58656  3.14028  -7.56570
 H  16.92320  0.55754  -5.67311
 H  -20.82376  -8.29727  3.16813
 H  -22.73112  -5.22206  6.04746
*
