# ================================================================
# Orca input file made by Matty Jones
# ================================================================
! ZINDO/S 
! NOPOP
! NOMOPRINT
* xyz 0   1
 C  -13.50222  -10.52875  -6.91437
 C  -14.23201  -11.66052  -6.54776
 C  -13.59614  -12.46881  -5.55448
 C  -12.35798  -11.97279  -5.13467
 S  -12.11852  -10.57985  -6.00231
 H  -15.15835  -12.02651  -7.10925
 C  -14.24919  -13.83065  -4.96678
 C  -15.23757  -14.93000  -5.84458
 C  -16.90322  -14.65451  -5.55544
 H  -17.07643  -14.99752  -4.46075
 H  -17.06810  -13.51107  -5.60921
 H  -14.97491  -16.00852  -5.56061
 H  -15.05155  -14.75358  -6.96569
 H  -14.87520  -13.55233  -4.02729
 H  -13.37015  -14.51855  -4.60942
 C  -18.02067  -15.40568  -6.48519
 C  -18.72120  -16.94581  -6.26185
 C  -18.41056  -17.89676  -4.91221
 H  -18.81501  -17.36642  -3.96712
 H  -17.27259  -18.07379  -4.81108
 H  -18.95030  -18.91490  -5.04082
 H  -18.38827  -17.57157  -7.17749
 H  -19.86617  -16.79967  -6.31230
 H  -18.94500  -14.69391  -6.49230
 H  -17.59303  -15.42946  -7.56395
 C  13.90342  10.63044  4.54247
 C  14.55069  11.73765  5.09296
 C  13.68113  12.63914  5.78249
 C  12.34047  12.24177  5.77646
 S  12.30207  10.81600  4.93020
 H  15.68069  11.89557  5.04770
 C  14.17791  13.98759  6.52366
 C  15.37587  14.97906  5.85493
 C  16.87693  14.52074  6.49844
 H  16.94228  13.36739  6.44073
 H  16.85668  14.82772  7.61706
 H  15.39536  14.84087  4.71564
 H  15.16525  16.07532  6.12496
 H  13.25943  14.70143  6.66279
 H  14.57529  13.71369  7.58397
 C  18.19570  15.16966  5.80607
 C  18.61497  16.74334  6.25046
 C  17.93839  17.89518  5.22480
 H  17.43789  17.37348  4.32097
 H  18.77170  18.60378  4.84530
 H  17.14429  18.50456  5.80527
 H  18.25068  16.94079  7.32422
 H  19.76222  16.84129  6.20652
 H  18.06812  15.14751  4.65638
 H  19.10700  14.50368  6.07889
 H  -13.77503  -9.79190  -7.62586
 H  -11.70844  -12.39805  -4.41297
 H  14.34291  9.83800  3.99249
 H  11.52043  12.74621  6.21992
*
