# ================================================================
# Orca input file made by Matty Jones
# ================================================================
! ZINDO/S 
! NOPOP
! NOMOPRINT
* xyz 0   1
 C  20.23973  6.47912  5.17963
 C  19.47999  5.40311  5.64105
 C  20.17439  4.54529  6.55002
 C  21.48907  4.94597  6.80766
 S  21.71989  6.32115  5.90988
 H  18.40645  5.18586  5.31969
 C  19.49693  3.24908  7.22827
 C  18.52553  2.15338  6.35273
 C  16.85939  2.49622  6.35073
 H  16.51703  2.50514  7.45569
 H  16.73095  3.55912  5.91640
 H  18.66201  1.11283  6.82538
 H  18.88885  2.14246  5.26198
 H  18.83127  3.60144  8.12239
 H  20.34129  2.57152  7.66816
 C  15.91483  1.46199  5.51306
 C  15.41969  0.05640  6.32273
 C  13.99101  0.16734  7.20601
 H  13.37600  1.07762  6.84501
 H  14.24608  0.29217  8.32838
 H  13.37389  -0.80108  7.05675
 H  16.26439  -0.25477  7.04218
 H  15.27402  -0.76490  5.52556
 H  14.95248  2.01827  5.18829
 H  16.47858  1.12369  4.56119
 C  -12.69507  -2.93343  -6.28481
 C  -13.82265  -3.48180  -6.89779
 C  -14.97329  -2.63358  -6.86935
 C  -14.75317  -1.40925  -6.23070
 S  -13.16877  -1.44021  -5.74169
 H  -14.27227  -4.52249  -6.42020
 C  -16.32127  -3.18455  -7.55702
 C  -17.89624  -2.81114  -7.16719
 C  -18.54601  -3.72978  -5.92191
 H  -18.21754  -4.82823  -6.08159
 H  -18.09371  -3.34926  -4.92806
 H  -17.94513  -1.70346  -6.86907
 H  -18.54207  -2.97612  -8.11349
 H  -16.29779  -4.36154  -7.52524
 H  -16.23641  -2.90531  -8.69552
 C  -20.16992  -3.65683  -5.86003
 C  -20.80716  -2.24626  -5.19519
 C  -21.15606  -1.08470  -6.36435
 H  -20.18291  -0.77284  -6.90535
 H  -21.63077  -0.16179  -5.85273
 H  -21.90094  -1.52982  -7.13056
 H  -21.77570  -2.50261  -4.62833
 H  -20.02978  -1.81319  -4.46896
 H  -20.60043  -3.77469  -6.92785
 H  -20.55430  -4.53998  -5.21423
 H  19.93477  7.23742  4.50467
 H  22.19115  4.47033  7.44363
 H  -11.73771  -3.37787  -6.18709
 H  -15.45256  -0.62546  -6.08882
*
