# ================================================================
# Orca input file made by Matty Jones
# ================================================================
! ZINDO/S 
! NOPOP
! NOMOPRINT
* xyz 0   1
 C  -12.80332  -11.28355  -8.20332
 C  -11.55392  -10.66486  -8.26758
 C  -10.57261  -11.23945  -7.40090
 C  -11.04953  -12.31730  -6.64850
 S  -12.63793  -12.50008  -7.08895
 H  -11.38028  -9.67579  -8.79761
 C  -9.11767  -10.54825  -7.44138
 C  -8.53916  -10.19447  -9.03207
 C  -8.83510  -8.74654  -9.92549
 H  -8.93670  -7.92180  -9.11755
 H  -7.85462  -8.55954  -10.51531
 H  -7.39038  -10.26024  -8.95055
 H  -8.92551  -11.04723  -9.70383
 H  -9.11924  -9.55195  -6.84701
 H  -8.32991  -11.26360  -6.97426
 C  -10.07398  -8.55006  -10.97888
 C  -10.00992  -7.13073  -11.92095
 C  -9.43694  -7.19484  -13.50518
 H  -10.08685  -7.92875  -14.11907
 H  -8.33608  -7.54698  -13.50492
 H  -9.50598  -6.13620  -13.97125
 H  -11.05632  -6.66232  -11.94298
 H  -9.26227  -6.45622  -11.36966
 H  -10.10664  -9.44575  -11.70595
 H  -11.07758  -8.47842  -10.41740
 C  14.33346  9.73304  8.40638
 C  13.01917  10.03289  8.76782
 C  12.84700  10.32043  10.15776
 C  14.03132  10.24726  10.89760
 S  15.21254  9.83644  9.80840
 H  12.15386  10.08091  8.02384
 C  11.50400  10.71295  10.99567
 C  9.96708  9.98279  11.32103
 C  8.39575  9.87040  10.65161
 H  7.64857  10.08698  11.50976
 H  8.30187  10.70918  9.86346
 H  10.27153  8.87369  11.46957
 H  9.73065  10.42944  12.37162
 H  11.86358  10.95261  12.08829
 H  11.15172  11.73852  10.54231
 C  8.04028  8.43022  9.98394
 C  7.66012  8.35547  8.34452
 C  6.01234  8.14248  8.06208
 H  5.42766  9.06789  8.43321
 H  5.65091  7.19975  8.62969
 H  5.83868  7.99669  6.92728
 H  7.98171  9.34519  7.84893
 H  8.23511  7.47896  7.86957
 H  8.93207  7.70661  10.14092
 H  7.12769  7.99081  10.55431
 H  -13.67430  -11.02931  -8.75137
 H  -10.50900  -12.89630  -5.94410
 H  14.69369  9.49038  7.43945
 H  14.14939  10.41852  11.93699
*
