# ================================================================
# Orca input file made by Matty Jones
# ================================================================
! ZINDO/S 
! NOPOP
! NOMOPRINT
* xyz 0   1
 C  17.46054  3.06043  8.00393
 C  18.71980  3.19558  7.41751
 C  19.80073  2.76994  8.25099
 C  19.39294  2.29630  9.50186
 S  17.73970  2.42723  9.51066
 H  19.07497  4.17023  6.86461
 C  21.31875  2.86451  7.70206
 C  21.73251  4.36559  6.99122
 C  23.26276  4.64969  6.29996
 H  23.08872  5.39370  5.42871
 H  23.61550  3.64134  5.85467
 H  20.98832  4.54861  6.13066
 H  21.58365  5.16278  7.81051
 H  22.07284  2.69006  8.57084
 H  21.49878  2.05147  6.89248
 C  24.43227  5.24313  7.26135
 C  25.90606  5.67105  6.53247
 C  26.01829  5.56137  4.85690
 H  25.84005  4.46743  4.52757
 H  27.07691  5.89738  4.52775
 H  25.22756  6.25221  4.37141
 H  26.12997  6.76501  6.82287
 H  26.72063  4.98637  6.97834
 H  24.68014  4.45642  8.07410
 H  24.03488  6.19709  7.78450
 C  -17.36401  -4.53091  -6.66950
 C  -18.46527  -5.05023  -7.35170
 C  -19.61270  -4.19723  -7.34326
 C  -19.41648  -2.99830  -6.65089
 S  -17.85559  -3.05591  -6.09344
 H  -18.30202  -5.31103  -8.52205
 C  -20.92883  -4.72330  -8.12002
 C  -22.52734  -4.34699  -7.73609
 C  -23.25897  -5.27885  -6.53815
 H  -22.90015  -6.37067  -6.65774
 H  -22.89420  -4.87669  -5.51593
 H  -22.57889  -3.24217  -7.42318
 H  -23.14563  -4.49183  -8.70364
 H  -20.90877  -5.89541  -8.11051
 H  -20.81930  -4.40910  -9.24788
 C  -24.88645  -5.22936  -6.59656
 C  -25.62152  -3.81537  -6.04386
 C  -25.90778  -2.71301  -7.28772
 H  -25.12534  -1.86283  -7.23115
 H  -26.97126  -2.27254  -7.16516
 H  -25.82862  -3.24369  -8.31284
 H  -26.62941  -4.08871  -5.55887
 H  -24.93608  -3.31775  -5.26445
 H  -25.23506  -5.41156  -7.68468
 H  -25.29987  -6.09142  -5.93891
 H  16.52331  3.30997  7.57624
 H  20.01108  1.93021  10.28128
 H  -16.41371  -4.98393  -6.54575
 H  -20.11842  -2.21634  -6.51151
*
