# ================================================================
# Orca input file made by Matty Jones
# ================================================================
! ZINDO/S 
! NOPOP
! NOMOPRINT
* xyz 0   1
 C  -19.43915  -2.50772  -13.37907
 C  -20.09142  -3.73289  -13.52535
 C  -19.49793  -4.80236  -12.78490
 C  -18.37135  -4.41975  -12.05024
 S  -18.17165  -2.80112  -12.35123
 H  -21.19253  -3.74778  -13.81770
 C  -20.20478  -6.24309  -12.90939
 C  -21.89033  -6.20604  -12.74562
 C  -22.55631  -5.95482  -14.27193
 H  -23.65309  -5.61736  -14.13449
 H  -21.99794  -5.16675  -14.89571
 H  -22.26509  -7.19859  -12.30595
 H  -22.18306  -5.33479  -12.05308
 H  -19.90593  -7.09368  -12.18797
 H  -19.96277  -6.65357  -13.98002
 C  -22.47880  -7.35432  -15.09675
 C  -23.15053  -7.22993  -16.62975
 C  -24.77194  -7.66119  -16.58843
 H  -25.38094  -6.92762  -17.24379
 H  -25.16359  -7.61910  -15.49967
 H  -24.88517  -8.73846  -16.99665
 H  -23.05721  -6.14276  -16.99992
 H  -22.58490  -7.93268  -17.34607
 H  -21.37752  -7.67904  -15.23573
 H  -23.03049  -8.18462  -14.50992
 C  19.42068  1.82286  12.58476
 C  20.18753  2.75574  13.28445
 C  19.41829  3.74178  13.97746
 C  18.03706  3.58673  13.82421
 S  17.84299  2.25650  12.85299
 H  21.32542  2.71317  13.35358
 C  20.11051  4.90740  14.86320
 C  21.50175  5.73209  14.36869
 C  21.99387  6.94996  15.45144
 H  21.68512  6.62114  16.51643
 H  21.41937  7.91483  15.17859
 H  22.35615  4.96475  14.28607
 H  21.30153  6.21500  13.34585
 H  19.33527  5.76968  15.01621
 H  20.39147  4.47149  15.90367
 C  23.59706  7.23623  15.41984
 C  24.17836  7.91572  13.98782
 C  24.18600  9.59125  13.89255
 H  25.00298  10.01432  14.59411
 H  23.14991  9.99971  14.20540
 H  24.41310  9.90467  12.80092
 H  25.26615  7.55251  13.85152
 H  23.53489  7.51231  13.11951
 H  24.16919  6.24705  15.60009
 H  23.86319  7.97154  16.27492
 H  -19.69924  -1.58434  -13.83000
 H  -17.77073  -5.03537  -11.43066
 H  19.77267  1.00878  12.00426
 H  17.27386  4.19257  14.24143
*
