# ================================================================
# Orca input file made by Matty Jones
# ================================================================
! ZINDO/S 
! NOPOP
! NOMOPRINT
* xyz 0   1
 C  -23.53558  -3.13943  -0.85741
 C  -22.28618  -2.52074  -0.92166
 C  -21.30486  -3.09532  -0.05499
 C  -21.78179  -4.17317  0.69741
 S  -23.37019  -4.35595  0.25696
 H  -22.11254  -1.53166  -1.45170
 C  -19.84993  -2.40412  -0.09546
 C  -19.27142  -2.05035  -1.68616
 C  -19.56736  -0.60242  -2.57958
 H  -19.66896  0.22232  -1.77164
 H  -18.58688  -0.41541  -3.16939
 H  -18.12264  -2.11612  -1.60463
 H  -19.65777  -2.90311  -2.35792
 H  -19.85149  -1.40783  0.49890
 H  -19.06217  -3.11947  0.37165
 C  -20.80624  -0.40594  -3.63297
 C  -20.74218  1.01340  -4.57504
 C  -20.16920  0.94929  -6.15927
 H  -20.81910  0.21538  -6.77316
 H  -19.06834  0.59715  -6.15900
 H  -20.23823  2.00792  -6.62534
 H  -21.78857  1.48181  -4.59707
 H  -19.99453  1.68791  -4.02374
 H  -20.83889  -1.30162  -4.36004
 H  -21.80983  -0.33430  -3.07149
 C  18.23031  -2.22310  0.81249
 C  19.11612  -1.24259  1.26173
 C  18.52989  -0.28995  2.15225
 C  17.17433  -0.51936  2.40748
 S  16.77802  -1.86982  1.53023
 H  20.21716  -1.20225  0.97608
 C  19.37675  0.94781  2.76383
 C  20.30749  1.86120  1.70124
 C  20.98988  3.13013  2.58410
 H  21.04348  2.82854  3.69646
 H  20.24321  4.01690  2.50000
 H  21.12926  1.20726  1.23526
 H  19.62431  2.29007  0.88085
 H  18.79705  1.74962  3.35070
 H  20.12939  0.48301  3.53012
 C  22.43088  3.61629  2.02472
 C  23.74623  2.85800  2.77450
 C  23.38829  1.82560  4.05862
 H  22.90765  2.43172  4.91884
 H  24.36899  1.33835  4.43600
 H  22.66134  0.99992  3.70258
 H  24.29495  2.23671  1.97330
 H  24.44812  3.68232  3.17025
 H  22.54122  4.75595  2.19199
 H  22.50276  3.40086  0.88993
 H  -24.40655  -2.88519  -1.40546
 H  -21.24126  -4.75218  1.40181
 H  18.44147  -3.02463  0.15176
 H  16.53411  0.05057  3.03108
*
