# ================================================================
# Orca input file made by Matty Jones
# ================================================================
! ZINDO/S 
! NOPOP
! NOMOPRINT
* xyz 0   1
 C  8.54184  20.80051  -0.65926
 C  8.90319  19.63082  -1.32943
 C  10.20588  19.14528  -0.99550
 C  10.87656  19.93557  -0.05692
 S  9.83710  21.17603  0.30531
 H  8.08285  18.86379  -1.59928
 C  10.58056  17.80251  -1.81318
 C  10.01337  17.82908  -3.47782
 C  9.09635  19.11910  -4.17946
 H  8.16673  19.30099  -3.52194
 H  9.78853  20.04242  -4.13366
 H  10.96035  17.73861  -4.12321
 H  9.36316  16.88871  -3.59330
 H  10.08285  16.87974  -1.31773
 H  11.72590  17.64860  -1.84917
 C  8.41555  19.05070  -5.67128
 C  6.77062  18.60318  -5.67548
 C  5.64260  19.85743  -5.57783
 H  6.06060  20.70374  -4.91015
 H  4.66036  19.44996  -5.11973
 H  5.43184  20.26534  -6.63988
 H  6.59323  17.90046  -4.78018
 H  6.56996  18.03370  -6.65737
 H  8.48412  20.09083  -6.16926
 H  8.98328  18.28430  -6.31921
 C  -7.19894  -15.42608  1.73938
 C  -7.19863  -16.56204  2.55023
 C  -7.12010  -16.28036  3.94978
 C  -7.05808  -14.91507  4.24555
 S  -7.10306  -14.13921  2.78048
 H  -6.84562  -17.56278  2.10760
 C  -7.15373  -17.65026  4.82354
 C  -8.50618  -18.56213  4.15587
 C  -9.26275  -20.09521  4.31469
 H  -10.39492  -19.91372  4.43489
 H  -8.84549  -20.58903  5.26709
 H  -8.29442  -18.59953  3.02406
 H  -9.38147  -17.82798  4.35145
 H  -7.34743  -17.44157  5.93911
 H  -6.19395  -18.27299  4.68193
 C  -9.00343  -21.07278  3.02484
 C  -9.78234  -22.58177  3.00411
 C  -11.28206  -22.67166  2.23479
 H  -12.11059  -22.81918  3.02902
 H  -11.28202  -23.57416  1.50856
 H  -11.47997  -21.69913  1.64168
 H  -9.93069  -22.90883  4.09930
 H  -9.07747  -23.32509  2.47423
 H  -7.86896  -21.28163  2.93755
 H  -9.34755  -20.51811  2.06705
 H  7.63133  21.33592  -0.74818
 H  11.84631  19.77535  0.33996
 H  -7.24977  -15.39300  0.68112
 H  -6.99545  -14.46934  5.20524
*
