# ================================================================
# Orca input file made by Matty Jones
# ================================================================
! ZINDO/S 
! NOPOP
! NOMOPRINT
* xyz 0   1
 C  18.44398  -3.29698  -0.05608
 C  19.63691  -3.05792  -0.73993
 C  20.80305  -3.53494  -0.06403
 C  20.52954  -4.15380  1.15970
 S  18.88246  -4.07925  1.33851
 H  19.84768  -1.94427  -1.09258
 C  22.21869  -3.27118  -0.82813
 C  22.18233  -1.69688  -1.59079
 C  23.14662  -0.63534  -2.55293
 H  23.59102  0.17049  -1.86167
 H  23.98523  -1.24110  -3.04960
 H  21.35046  -1.91074  -2.37538
 H  21.81382  -1.00830  -0.74383
 H  23.10047  -3.26442  -0.07843
 H  22.40598  -4.05994  -1.64731
 C  22.17097  0.06440  -3.67550
 C  22.61651  1.44139  -4.56491
 C  23.32206  1.32027  -6.08834
 H  23.49739  2.38950  -6.50206
 H  22.61220  0.74639  -6.79915
 H  24.33306  0.76695  -6.00456
 H  21.63842  2.02489  -4.71987
 H  23.33975  2.04377  -3.90124
 H  21.94429  -0.74680  -4.47513
 H  21.17099  0.34125  -3.15629
 C  -24.29125  -2.02507  0.61328
 C  -23.41267  -1.08763  1.15842
 C  -24.04169  -0.11894  2.00115
 C  -25.42394  -0.29234  2.12207
 S  -25.78993  -1.61644  1.19300
 H  -22.28991  -1.08561  0.96480
 C  -23.25163  1.08191  2.72661
 C  -22.23690  2.01099  1.75569
 C  -21.57992  3.30995  2.61374
 H  -22.44742  3.79882  3.20822
 H  -21.21270  4.07763  1.82660
 H  -21.39138  1.34803  1.35422
 H  -22.85686  2.42913  0.87933
 H  -23.90872  1.82809  3.31315
 H  -22.54519  0.59194  3.53536
 C  -20.36375  2.97628  3.63650
 C  -18.83555  2.87169  2.93657
 C  -18.44208  1.28893  2.52384
 H  -17.42046  1.28051  1.98096
 H  -19.25388  0.85020  1.82815
 H  -18.37434  0.65349  3.48940
 H  -18.81350  3.51752  1.98351
 H  -18.05640  3.26286  3.68903
 H  -20.57721  1.97363  4.17410
 H  -20.31140  3.81204  4.43893
 H  17.46423  -3.03390  -0.36346
 H  21.22860  -4.58111  1.83225
 H  -24.05106  -2.82882  -0.03472
 H  -26.09693  0.29878  2.68888
*
