# ================================================================
# Orca input file made by Matty Jones
# ================================================================
! ZINDO/S 
! NOPOP
! NOMOPRINT
* xyz 0   1
 C  20.21420  0.58116  -3.39926
 C  19.81172  -0.74724  -3.25339
 C  20.52154  -1.46450  -2.24049
 C  21.48939  -0.69860  -1.58322
 S  21.41698  0.80457  -2.28011
 H  19.00013  -1.23621  -3.89332
 C  20.30417  -3.01141  -1.80215
 C  18.82657  -3.72181  -1.36904
 C  17.89516  -4.40248  -2.58687
 H  17.59201  -3.56195  -3.32083
 H  18.54896  -5.17295  -3.14753
 H  19.05687  -4.55687  -0.60570
 H  18.19646  -2.90371  -0.85308
 H  20.67899  -3.67292  -2.69356
 H  20.98402  -3.27067  -0.89853
 C  16.56105  -5.13839  -2.01000
 C  15.61419  -5.77057  -3.25430
 C  14.60198  -4.59518  -3.90510
 H  13.59496  -5.07817  -4.20643
 H  15.11007  -4.13802  -4.83975
 H  14.41378  -3.76226  -3.12396
 H  16.29952  -6.18212  -4.08181
 H  14.96605  -6.62116  -2.82648
 H  16.86982  -6.01760  -1.32328
 H  15.92600  -4.39478  -1.39658
 C  -20.67389  -0.25602  1.00037
 C  -19.78807  0.72449  1.44961
 C  -20.37430  1.67714  2.34014
 C  -21.72986  1.44772  2.59536
 S  -22.12617  0.09726  1.71812
 H  -18.68704  0.76483  1.16397
 C  -19.52744  2.91489  2.95172
 C  -18.59670  3.82829  1.88913
 C  -17.91431  5.09721  2.77198
 H  -17.86071  4.79562  3.88435
 H  -18.66098  5.98399  2.68789
 H  -17.77493  3.17434  1.42315
 H  -19.27988  4.25716  1.06874
 H  -20.10714  3.71671  3.53859
 H  -18.77481  2.45009  3.71801
 C  -16.47331  5.58337  2.21261
 C  -15.15796  4.82508  2.96238
 C  -15.51590  3.79268  4.24650
 H  -15.99654  4.39880  5.10673
 H  -14.53520  3.30543  4.62389
 H  -16.24285  2.96700  3.89047
 H  -14.60925  4.20379  2.16119
 H  -14.45607  5.64941  3.35814
 H  -16.36297  6.72303  2.37988
 H  -16.40143  5.36794  1.07782
 H  19.83160  1.29641  -4.08164
 H  22.13431  -1.01296  -0.80293
 H  -20.46273  -1.05755  0.33964
 H  -22.37009  2.01765  3.21897
*
