# ================================================================
# Orca input file made by Matty Jones
# ================================================================
! ZINDO/S 
! NOPOP
! NOMOPRINT
* xyz 0   1
 C  -7.11853  14.84929  27.00263
 C  -7.61434  13.65561  26.47616
 C  -7.02207  12.48042  27.03512
 C  -6.05371  12.74751  28.00788
 S  -5.98226  14.40037  28.12355
 H  -8.36286  13.58812  25.61527
 C  -7.47802  10.99986  26.55237
 C  -9.13651  10.51298  26.65342
 C  -10.61423  10.51592  25.75366
 H  -11.09591  9.49680  26.05059
 H  -11.22988  11.35147  26.28414
 H  -9.00857  9.37380  26.85589
 H  -9.46124  11.02437  27.64296
 H  -6.87282  10.17337  27.09909
 H  -7.23104  10.89953  25.41245
 C  -10.92578  10.69857  24.15990
 C  -11.13162  9.25936  23.27799
 C  -12.69084  8.60777  23.26947
 H  -12.77277  7.81330  24.10762
 H  -12.89198  8.10857  22.24459
 H  -13.46665  9.44538  23.45195
 H  -10.84819  9.48490  22.18327
 H  -10.41379  8.46912  23.70748
 H  -11.90030  11.31071  24.03306
 H  -10.05687  11.27978  23.66807
 C  11.11474  -6.93955  -28.48593
 C  10.33392  -7.86858  -27.79664
 C  11.08774  -8.80475  -27.02230
 C  12.47079  -8.61397  -27.10055
 S  12.68514  -7.31531  -28.10948
 H  9.19214  -7.87078  -27.81027
 C  10.46671  -10.02426  -26.13597
 C  9.20963  -9.96469  -24.96259
 C  8.87265  -11.46384  -24.17524
 H  8.79737  -11.19329  -23.05021
 H  9.83285  -12.09589  -24.33182
 H  8.24778  -9.63361  -25.49466
 H  9.50426  -9.20404  -24.15690
 H  11.35129  -10.51445  -25.54474
 H  10.06870  -10.82910  -26.88986
 C  7.60421  -12.43802  -24.52137
 C  7.54973  -13.93090  -23.69790
 C  8.15875  -15.23757  -24.57229
 H  9.28176  -15.06880  -24.78779
 H  7.57788  -15.32391  -25.57057
 H  8.01862  -16.20968  -23.96031
 H  8.17262  -13.82968  -22.73365
 H  6.45389  -14.15610  -23.42655
 H  7.59269  -12.66975  -25.65193
 H  6.62709  -11.88362  -24.24321
 H  -7.40746  15.83503  26.74103
 H  -5.48449  12.04139  28.55649
 H  10.77535  -6.15844  -29.11702
 H  13.22441  -9.18074  -26.61636
*
