# ================================================================
# Orca input file made by Matty Jones
# ================================================================
! ZINDO/S 
! NOPOP
! NOMOPRINT
* xyz 0   1
 C  -18.23741  -10.76785  -3.94415
 C  -17.03846  -10.07161  -3.78385
 C  -16.21537  -10.56288  -2.72298
 C  -16.76716  -11.65253  -2.04216
 S  -18.22390  -11.94665  -2.77825
 H  -16.84764  -9.08363  -4.32070
 C  -14.81290  -9.79579  -2.50735
 C  -14.08817  -9.43716  -4.01751
 C  -12.65736  -8.56345  -4.21069
 H  -12.50743  -7.97120  -3.22336
 H  -12.86052  -7.79566  -5.05796
 H  -13.90904  -10.46433  -4.51603
 H  -14.85597  -8.84642  -4.64384
 H  -14.98126  -8.79735  -1.94607
 H  -14.06900  -10.45092  -1.90538
 C  -11.27453  -9.34247  -4.55295
 C  -10.01238  -8.24832  -4.84097
 C  -9.18479  -7.83513  -3.43962
 H  -8.57105  -6.87198  -3.62516
 H  -8.47330  -8.70054  -3.14979
 H  -9.94355  -7.65308  -2.58457
 H  -9.27421  -8.72945  -5.58211
 H  -10.45105  -7.28850  -5.30440
 H  -11.41014  -9.97909  -5.50835
 H  -10.97110  -10.03270  -3.67976
 C  11.50967  5.96878  1.30140
 C  12.10733  6.66364  2.35394
 C  11.27068  7.66137  2.94454
 C  10.00598  7.75482  2.35536
 S  9.98973  6.61411  1.15164
 H  13.17164  6.47495  2.70950
 C  11.69440  8.62706  4.17117
 C  13.01925  9.64016  3.88332
 C  13.42855  10.73757  5.11020
 H  12.46292  11.28113  5.43812
 H  13.84483  10.13793  6.00461
 H  13.93848  8.97605  3.68771
 H  12.77409  10.25386  2.93877
 H  10.81267  9.28203  4.54656
 H  12.01613  7.95193  5.07986
 C  14.52801  11.82902  4.60063
 C  16.13194  11.38504  4.86699
 C  16.74010  10.36417  3.67754
 H  15.97248  10.25704  2.81854
 H  16.94297  9.32395  4.14469
 H  17.72765  10.80062  3.26166
 H  16.76927  12.34642  4.87535
 H  16.21146  10.86375  5.89017
 H  14.35198  12.83136  5.15363
 H  14.39604  12.01568  3.46620
 H  -18.99655  -10.58216  -4.66027
 H  -16.34314  -12.18009  -1.22638
 H  11.93728  5.19222  0.72027
 H  9.22184  8.41627  2.62223
*
