# ================================================================
# Orca input file made by Matty Jones
# ================================================================
! ZINDO/S 
! NOPOP
! NOMOPRINT
* xyz 0   1
 C  11.67639  4.71244  -1.99163
 C  12.90805  5.35178  -1.84280
 C  13.82341  4.66364  -0.98673
 C  13.31195  3.47493  -0.45691
 S  11.77572  3.33978  -1.06696
 H  13.12541  6.50407  -1.69781
 C  15.31142  5.21144  -0.66282
 C  15.49910  6.79880  -0.07220
 C  17.08378  7.37814  0.18481
 H  16.98097  8.53549  0.09614
 H  17.70839  7.02435  -0.71777
 H  14.99914  7.51168  -0.82388
 H  14.95110  6.84950  0.93922
 H  15.83970  4.51903  0.10753
 H  15.94191  5.17570  -1.64661
 C  17.88462  7.09812  1.57792
 C  19.50539  7.61540  1.56233
 C  19.83379  9.18647  2.06976
 H  19.98509  9.86331  1.14273
 H  20.80128  9.18621  2.70690
 H  18.95298  9.58564  2.70317
 H  20.10310  6.89541  2.23626
 H  19.88342  7.52799  0.47606
 H  17.88843  5.96379  1.79898
 H  17.35536  7.64477  2.44763
 C  -17.59119  -8.87296  -4.08158
 C  -16.98335  -8.43442  -2.90425
 C  -17.80191  -7.57130  -2.11100
 C  -19.06247  -7.32706  -2.66475
 S  -19.09742  -8.17988  -4.08669
 H  -16.06088  -8.93135  -2.42459
 C  -17.12296  -6.98986  -0.77733
 C  -15.57947  -6.41520  -1.11792
 C  -14.53058  -5.82142  0.05334
 H  -14.64063  -4.66787  0.07185
 H  -13.45145  -6.07316  -0.28682
 H  -14.99299  -7.27120  -1.62623
 H  -15.73808  -5.56227  -1.88295
 H  -17.78180  -6.14739  -0.31743
 H  -17.06318  -7.84467  0.01111
 C  -14.77458  -6.41509  1.54231
 C  -15.92520  -5.53784  2.40128
 C  -15.24882  -4.18974  3.14171
 H  -14.48592  -4.53030  3.94139
 H  -16.08758  -3.56691  3.63973
 H  -14.71246  -3.54775  2.34201
 H  -16.75577  -5.19461  1.68210
 H  -16.37177  -6.22123  3.21415
 H  -13.77966  -6.39108  2.13425
 H  -15.13309  -7.51358  1.47632
 H  10.85141  5.03616  -2.57320
 H  13.80327  2.80126  0.19759
 H  -17.17720  -9.51395  -4.81734
 H  -19.83415  -6.72325  -2.26035
*
