# ================================================================
# Orca input file made by Matty Jones
# ================================================================
! ZINDO/S 
! NOPOP
! NOMOPRINT
* xyz 0   1
 C  22.89252  -3.49482  -12.04682
 C  24.09204  -2.82181  -11.80994
 C  25.00934  -3.53825  -10.97955
 C  24.53174  -4.78324  -10.55861
 S  23.02089  -4.93004  -11.22659
 H  24.30712  -1.67266  -11.63759
 C  26.50603  -3.18364  -10.40430
 C  27.95240  -2.50861  -11.01900
 C  28.27801  -0.86399  -10.77144
 H  28.81371  -0.47118  -11.71730
 H  27.26977  -0.31680  -10.65254
 H  28.82523  -3.10522  -10.55742
 H  27.93829  -2.68392  -12.15776
 H  26.30874  -2.48429  -9.48089
 H  26.92546  -4.18611  -9.95602
 C  29.22243  -0.55941  -9.46513
 C  28.45005  -0.33429  -7.97454
 C  29.47958  0.06713  -6.69900
 H  30.45127  -0.55529  -6.77313
 H  28.94809  -0.15969  -5.69652
 H  29.73346  1.19473  -6.75660
 H  27.67958  0.51276  -8.09436
 H  27.91132  -1.31526  -7.70112
 H  29.96590  -1.43526  -9.32185
 H  29.83398  0.40281  -9.66793
 C  -22.26695  1.77367  9.77912
 C  -23.34938  1.10792  10.35618
 C  -24.37996  1.97521  10.83574
 C  -24.10995  3.33265  10.63634
 S  -22.63110  3.38758  9.88772
 H  -23.86790  0.07894  10.10311
 C  -25.77442  1.55014  11.53553
 C  -26.97552  1.06148  10.42829
 C  -27.74317  2.49962  9.90312
 H  -28.30137  2.90155  10.83752
 H  -26.87383  3.22832  9.65948
 H  -26.50313  0.52247  9.53606
 H  -27.74437  0.39633  10.95753
 H  -26.20869  2.39564  12.19628
 H  -25.59124  0.63321  12.23450
 C  -28.77875  2.57082  8.64460
 C  -30.44917  2.53386  8.89745
 C  -31.14723  1.01431  8.75790
 H  -30.44180  0.22213  9.21923
 H  -31.31981  0.77640  7.63784
 H  -32.16165  1.00673  9.31497
 H  -30.94022  3.22505  8.11438
 H  -30.66601  2.94046  9.95333
 H  -28.56881  3.55733  8.06861
 H  -28.53773  1.68611  7.93449
 H  22.07237  -3.15918  -12.62846
 H  25.03086  -5.48605  -9.94173
 H  -21.39575  1.33915  9.35984
 H  -24.72227  4.15448  10.90700
*
