# ================================================================
# Orca input file made by Matty Jones
# ================================================================
! ZINDO/S 
! NOPOP
! NOMOPRINT
* xyz 0   1
 C  15.84391  11.70533  -7.40046
 C  16.39853  10.83873  -8.34348
 C  17.54258  10.12057  -7.87479
 C  17.89310  10.42162  -6.55501
 S  16.78467  11.54471  -6.04463
 H  16.10476  10.99931  -9.43358
 C  18.14967  9.11549  -8.99774
 C  16.94529  8.83345  -10.25059
 C  15.56834  7.82999  -10.15773
 H  15.93138  6.75516  -10.38276
 H  15.23460  7.87820  -9.04839
 H  17.61152  8.22676  -11.00439
 H  16.67658  9.79279  -10.81995
 H  18.41180  8.08967  -8.53694
 H  19.07856  9.57624  -9.50657
 C  14.23225  8.11330  -11.08043
 C  13.99547  9.50258  -12.03720
 C  12.51557  9.54050  -12.86217
 H  11.74065  8.89187  -12.29958
 H  12.66457  9.12685  -13.93241
 H  12.13728  10.63279  -12.91914
 H  14.84031  9.55260  -12.81561
 H  14.03987  10.42257  -11.34760
 H  14.13171  7.22445  -11.81917
 H  13.31617  8.08955  -10.36744
 C  -10.79603  -8.83258  7.95493
 C  -12.06331  -9.36106  8.20509
 C  -12.88430  -8.53956  9.03898
 C  -12.26215  -7.35642  9.44936
 S  -10.75028  -7.38855  8.76844
 H  -12.42561  -10.36132  7.79298
 C  -14.36444  -9.10337  9.38841
 C  -15.79504  -8.18656  9.46647
 C  -17.18083  -9.14039  9.74801
 H  -18.04402  -8.62540  9.17089
 H  -16.97850  -10.16996  9.25945
 H  -15.92065  -7.59413  8.49430
 H  -15.75893  -7.49958  10.37544
 H  -14.30972  -9.62567  10.43839
 H  -14.62060  -9.93711  8.60749
 C  -17.65863  -9.37849  11.28605
 C  -18.99684  -10.41002  11.42383
 C  -18.56845  -12.02586  11.61468
 H  -18.01078  -12.38979  10.66845
 H  -19.52374  -12.65994  11.77158
 H  -17.87806  -12.13013  12.53772
 H  -19.63393  -10.31285  10.46917
 H  -19.61633  -10.08510  12.33809
 H  -16.79275  -9.83501  11.89932
 H  -17.95668  -8.36532  11.75762
 H  14.99934  12.33369  -7.52482
 H  18.69862  10.01676  -5.99749
 H  -10.02530  -9.26351  7.36852
 H  -12.67120  -6.59783  10.06646
*
