# ================================================================
# Orca input file made by Matty Jones
# ================================================================
! ZINDO/S 
! NOPOP
! NOMOPRINT
* xyz 0   1
 C  15.24392  5.05972  -9.08786
 C  15.60527  3.89002  -9.75803
 C  16.90796  3.40448  -9.42411
 C  17.57864  4.19477  -8.48552
 S  16.53918  5.43523  -8.12329
 H  14.78492  3.12300  -10.02789
 C  17.28264  2.06172  -10.24179
 C  16.71545  2.08828  -11.90642
 C  15.79843  3.37831  -12.60806
 H  14.86881  3.56020  -11.95055
 H  16.49061  4.30163  -12.56226
 H  17.66243  1.99781  -12.55182
 H  16.06524  1.14791  -12.02191
 H  16.78493  1.13894  -9.74633
 H  18.42798  1.90780  -10.27777
 C  15.11763  3.30990  -14.09988
 C  13.47270  2.86239  -14.10409
 C  12.34468  4.11664  -14.00644
 H  12.76268  4.96294  -13.33876
 H  11.36244  3.70916  -13.54833
 H  12.13392  4.52455  -15.06849
 H  13.29531  2.15966  -13.20879
 H  13.27204  2.29291  -15.08598
 H  15.18620  4.35003  -14.59787
 H  15.68536  2.54351  -14.74782
 C  -17.28550  -6.86532  13.52739
 C  -17.18598  -5.73047  12.72111
 C  -17.68119  -4.53579  13.33084
 C  -18.17424  -4.72827  14.62513
 S  -17.97432  -6.34374  14.94251
 H  -16.99545  -5.80993  11.59724
 C  -17.57084  -3.18528  12.44728
 C  -16.01041  -3.14778  11.70725
 C  -15.46882  -1.95903  10.63017
 H  -15.27414  -1.00085  11.24423
 H  -16.31987  -1.75766  9.87524
 H  -15.26414  -3.15288  12.58910
 H  -15.89415  -4.12594  11.11050
 H  -18.36435  -3.18215  11.60495
 H  -17.69449  -2.23394  13.09545
 C  -14.10393  -2.36461  9.81936
 C  -12.62667  -1.61086  10.16010
 C  -11.60215  -2.32382  11.28511
 H  -12.16130  -2.45276  12.28882
 H  -10.68025  -1.63886  11.43929
 H  -11.25318  -3.35494  10.89229
 H  -12.04453  -1.55312  9.16262
 H  -12.85919  -0.54053  10.51979
 H  -14.29692  -2.20632  8.68696
 H  -13.91199  -3.49866  9.98811
 H  14.33341  5.59512  -9.17678
 H  18.54839  4.03455  -8.08864
 H  -16.98424  -7.85251  13.28597
 H  -18.58893  -3.99514  15.26868
*
