# ================================================================
# Orca input file made by Matty Jones
# ================================================================
! ZINDO/S 
! NOPOP
! NOMOPRINT
* xyz 0   1
 C  12.51873  19.53605  0.46577
 C  11.83450  18.32344  0.36927
 C  12.41330  17.26389  1.13518
 C  13.56035  17.64177  1.84003
 S  13.79475  19.24439  1.48351
 H  10.76069  18.30181  -0.01026
 C  11.73544  15.83042  1.09826
 C  10.05302  15.89219  1.30750
 C  9.39122  16.08323  -0.22903
 H  8.42453  16.70417  -0.13367
 H  10.14196  16.63834  -0.90825
 H  9.68166  14.92363  1.79578
 H  9.77656  16.79856  1.96096
 H  12.08460  15.11389  1.92691
 H  11.96721  15.31473  0.07125
 C  9.10510  14.65188  -0.94432
 C  8.65187  14.74856  -2.56751
 C  8.60266  16.29240  -3.23776
 H  8.32035  16.20583  -4.35756
 H  9.64074  16.79411  -3.14363
 H  7.80873  16.92739  -2.68588
 H  9.40762  14.12591  -3.17707
 H  7.60151  14.28458  -2.66864
 H  10.05507  13.99362  -0.88401
 H  8.24927  14.11583  -0.37699
 C  -9.00250  -12.72534  -1.25552
 C  -9.00219  -13.86131  -0.44466
 C  -8.92365  -13.57962  0.95489
 C  -8.86164  -12.21434  1.25066
 S  -8.90662  -11.43848  -0.21442
 H  -8.64918  -14.86205  -0.88730
 C  -8.95728  -14.94953  1.82865
 C  -10.30973  -15.86140  1.16097
 C  -11.06630  -17.39448  1.31979
 H  -12.19848  -17.21299  1.43999
 H  -10.64904  -17.88830  2.27220
 H  -10.09798  -15.89880  0.02916
 H  -11.18503  -15.12725  1.35656
 H  -9.15098  -14.74084  2.94421
 H  -7.99751  -15.57226  1.68704
 C  -10.80699  -18.37205  0.02995
 C  -11.58590  -19.88104  0.00921
 C  -13.08562  -19.97093  -0.76010
 H  -13.91415  -20.11845  0.03412
 H  -13.08557  -20.87342  -1.48634
 H  -13.28352  -18.99840  -1.35322
 H  -11.73425  -20.20810  1.10441
 H  -10.88103  -20.62436  -0.52067
 H  -9.67251  -18.58090  -0.05735
 H  -11.15111  -17.81738  -0.92784
 H  12.27418  20.45063  -0.01104
 H  14.15545  17.03163  2.47026
 H  -9.05333  -12.69227  -2.31378
 H  -8.79900  -11.76861  2.21034
*
