# ================================================================
# Orca input file made by Matty Jones
# ================================================================
! ZINDO/S 
! NOPOP
! NOMOPRINT
* xyz 0   1
 C  -1.59576  2.78119  -1.86597
 C  -2.24803  1.55602  -2.01224
 C  -1.65455  0.48655  -1.27180
 C  -0.52796  0.86916  -0.53713
 S  -0.32826  2.48779  -0.83812
 H  -3.34914  1.54113  -2.30460
 C  -2.36139  -0.95418  -1.39628
 C  -4.04694  -0.91713  -1.23252
 C  -4.71292  -0.66591  -2.75883
 H  -5.80970  -0.32845  -2.62138
 H  -4.15455  0.12216  -3.38260
 H  -4.42171  -1.90968  -0.79285
 H  -4.33967  -0.04588  -0.53998
 H  -2.06254  -1.80477  -0.67487
 H  -2.11939  -1.36466  -2.46692
 C  -4.63541  -2.06541  -3.58364
 C  -5.30714  -1.94102  -5.11664
 C  -6.92855  -2.37227  -5.07532
 H  -7.53755  -1.63870  -5.73069
 H  -7.32020  -2.33019  -3.98656
 H  -7.04178  -3.44955  -5.48354
 H  -5.21383  -0.85385  -5.48682
 H  -4.74152  -2.64377  -5.83296
 H  -3.53414  -2.39013  -3.72262
 H  -5.18710  -2.89570  -2.99681
 C  -0.38479  -0.95257  0.53252
 C  0.81473  -0.27957  0.76941
 C  1.73204  -0.99600  1.59979
 C  1.25444  -2.24100  2.02073
 S  -0.25642  -2.38779  1.35275
 H  1.02982  0.86959  0.94175
 C  3.22873  -0.64139  2.17504
 C  4.67510  0.03364  1.56034
 C  5.00070  1.67826  1.80791
 H  5.53640  2.07106  0.86204
 H  3.99246  2.22545  1.92680
 H  5.54792  -0.56297  2.02192
 H  4.66098  -0.14167  0.42158
 H  3.03143  0.05796  3.09846
 H  3.64815  -1.64386  2.62332
 C  5.94513  1.98284  3.11422
 C  5.17275  2.20795  4.60481
 C  6.20228  2.60938  5.88034
 H  7.17396  1.98696  5.80621
 H  5.67078  2.38255  6.88282
 H  6.45615  3.73698  5.82274
 H  4.40228  3.05501  4.48499
 H  4.63401  1.22698  4.87822
 H  6.68859  1.10699  3.25749
 H  6.55667  2.94506  2.91141
 H  -1.85585  3.70457  -2.31689
 H  0.07265  0.25354  0.08244
 H  -1.20494  -0.61693  -0.04911
 H  1.75356  -2.94380  2.63762
*
