# ================================================================
# Orca input file made by Matty Jones
# ================================================================
! ZINDO/S 
! NOPOP
! NOMOPRINT
* xyz 0   1
 C  -17.69182  -5.56153  -10.88553
 C  -18.18762  -6.75522  -11.41200
 C  -17.59536  -7.93040  -10.85304
 C  -16.62700  -7.66331  -9.88028
 S  -16.55555  -6.01046  -9.76461
 H  -18.93614  -6.82271  -12.27289
 C  -18.05130  -9.41096  -11.33580
 C  -19.70980  -9.89785  -11.23474
 C  -21.18751  -9.89491  -12.13450
 H  -21.66920  -10.91403  -11.83757
 H  -21.80316  -9.05936  -11.60403
 H  -19.58186  -11.03703  -11.03228
 H  -20.03453  -9.38646  -10.24520
 H  -17.44611  -10.23746  -10.78907
 H  -17.80433  -9.51130  -12.47571
 C  -21.49907  -9.71226  -13.72826
 C  -21.70490  -11.15147  -14.61017
 C  -23.26413  -11.80306  -14.61870
 H  -23.34606  -12.59753  -13.78054
 H  -23.46527  -12.30226  -15.64358
 H  -24.03994  -10.96545  -14.43621
 H  -21.42148  -10.92593  -15.70490
 H  -20.98708  -11.94171  -14.18069
 H  -22.47359  -9.10012  -13.85510
 H  -20.63016  -9.13105  -14.22009
 C  17.75465  5.27098  10.66677
 C  18.52149  6.20386  11.36647
 C  17.75226  7.18991  12.05947
 C  16.37103  7.03485  11.90622
 S  16.17696  5.70462  10.93500
 H  19.65938  6.16129  11.43559
 C  18.44448  8.35552  12.94521
 C  19.83572  9.18022  12.45070
 C  20.32784  10.39808  13.53346
 H  20.01908  10.06926  14.59844
 H  19.75334  11.36295  13.26061
 H  20.69011  8.41288  12.36808
 H  19.63549  9.66313  11.42786
 H  17.66924  9.21780  13.09822
 H  18.72544  7.91961  13.98568
 C  21.93103  10.68435  13.50185
 C  22.51233  11.36384  12.06983
 C  22.51997  13.03937  11.97456
 H  23.33695  13.46244  12.67612
 H  21.48388  13.44783  12.28741
 H  22.74706  13.35279  10.88293
 H  23.60011  11.00063  11.93353
 H  21.86886  10.96043  11.20152
 H  22.50316  9.69518  13.68210
 H  22.19716  11.41966  14.35693
 H  -17.98075  -4.57580  -11.14713
 H  -16.05777  -8.36944  -9.33168
 H  18.10664  4.45690  10.08627
 H  15.60783  7.64069  12.32344
*
