# ================================================================
# Orca input file made by Matty Jones
# ================================================================
! ZINDO/S 
! NOPOP
! NOMOPRINT
* xyz 0   1
 C  -17.36279  -5.43288  28.00816
 C  -16.07147  -4.98098  27.73219
 C  -15.03711  -5.77711  28.31576
 C  -15.51408  -6.86314  29.05625
 S  -17.16724  -6.78234  28.95146
 H  -15.67119  -3.88687  27.64461
 C  -13.43503  -5.59836  28.23972
 C  -12.58514  -4.26858  28.91638
 C  -12.16997  -4.68211  30.52959
 H  -13.17096  -4.73873  31.10752
 H  -11.70843  -5.74421  30.49574
 H  -11.61586  -4.10155  28.32763
 H  -13.23574  -3.32714  28.91432
 H  -12.91040  -6.53717  28.69419
 H  -13.14249  -5.55612  27.10607
 C  -11.14566  -3.71547  31.34998
 C  -11.85112  -2.43625  32.19209
 C  -11.98394  -1.05521  31.24510
 H  -12.14655  -0.13531  31.92817
 H  -12.88385  -1.17187  30.52702
 H  -11.01370  -0.91385  30.63046
 H  -12.90153  -2.75160  32.54244
 H  -11.19466  -2.19266  33.10725
 H  -10.57897  -4.35484  32.13480
 H  -10.36750  -3.27457  30.61599
 C  17.66305  4.46041  -31.17206
 C  16.34876  4.76025  -30.81063
 C  16.17659  5.04779  -29.42068
 C  17.36091  4.97462  -28.68084
 S  18.54213  4.56380  -29.77005
 H  15.48345  4.80828  -31.55461
 C  14.83360  5.44032  -28.58277
 C  13.29667  4.71015  -28.25741
 C  11.72534  4.59777  -28.92683
 H  10.97817  4.81435  -28.06868
 H  11.63146  5.43654  -29.71499
 H  13.60112  3.60106  -28.10888
 H  13.06024  5.15680  -27.20682
 H  15.19317  5.67998  -27.49015
 H  14.48131  6.46588  -29.03613
 C  11.36987  3.15759  -29.59450
 C  10.98971  3.08284  -31.23392
 C  9.34193  2.86984  -31.51636
 H  8.75725  3.79525  -31.14523
 H  8.98050  1.92711  -30.94875
 H  9.16827  2.72406  -32.65116
 H  11.31130  4.07255  -31.72951
 H  11.56471  2.20633  -31.70887
 H  12.26166  2.43397  -29.43752
 H  10.45729  2.71818  -29.02413
 H  -18.27600  -5.00385  27.68321
 H  -14.93936  -7.58659  29.57579
 H  18.02328  4.21775  -32.13899
 H  17.47898  5.14588  -27.64145
*
