# ================================================================
# Orca input file made by Matty Jones
# ================================================================
! ZINDO/S 
! NOPOP
! NOMOPRINT
* xyz 0   1
 C  -19.78793  -1.31143  -0.85610
 C  -20.51772  -2.44320  -0.48949
 C  -19.88185  -3.25148  0.50378
 C  -18.64369  -2.75547  0.92360
 S  -18.40423  -1.36253  0.05596
 H  -21.44406  -2.80919  -1.05099
 C  -20.53490  -4.61333  1.09149
 C  -21.52328  -5.71267  0.21369
 C  -23.18893  -5.43719  0.50283
 H  -23.36214  -5.78020  1.59752
 H  -23.35381  -4.29374  0.44905
 H  -21.26062  -6.79120  0.49766
 H  -21.33727  -5.53626  -0.90742
 H  -21.16091  -4.33501  2.03097
 H  -19.65586  -5.30122  1.44885
 C  -24.30638  -6.18836  -0.42693
 C  -25.00691  -7.72849  -0.20359
 C  -24.69627  -8.67944  1.14605
 H  -25.10072  -8.14910  2.09115
 H  -23.55830  -8.85646  1.24719
 H  -25.23601  -9.69758  1.01745
 H  -24.67398  -8.35425  -1.11922
 H  -26.15188  -7.58235  -0.25403
 H  -25.23071  -5.47659  -0.43404
 H  -23.87874  -6.21214  -1.50568
 C  19.71176  1.74264  -1.86729
 C  20.59758  2.72315  -1.41805
 C  20.01134  3.67580  -0.52752
 C  18.65579  3.44638  -0.27230
 S  18.25948  2.09592  -1.14954
 H  21.69861  2.76349  -1.70369
 C  20.85821  4.91355  0.08406
 C  21.78895  5.82695  -0.97853
 C  22.47134  7.09587  -0.09568
 H  22.52494  6.79428  1.01669
 H  21.72467  7.98265  -0.17977
 H  22.61072  5.17300  -1.44451
 H  21.10576  6.25582  -1.79892
 H  20.27851  5.71537  0.67093
 H  21.61084  4.44875  0.85035
 C  23.91234  7.58203  -0.65505
 C  25.22769  6.82374  0.09472
 C  24.86975  5.79134  1.37884
 H  24.38911  6.39746  2.23907
 H  25.85044  5.30409  1.75623
 H  24.14280  4.96566  1.02281
 H  25.77640  6.20245  -0.70647
 H  25.92957  7.64807  0.49048
 H  24.02268  8.72169  -0.48778
 H  23.98422  7.36660  -1.78984
 H  -20.06074  -0.57458  -1.56759
 H  -17.99415  -3.18073  1.64530
 H  19.92292  0.94111  -2.52801
 H  18.01556  4.01631  0.35131
*
