# ================================================================
# Orca input file made by Matty Jones
# ================================================================
! ZINDO/S 
! NOPOP
! NOMOPRINT
* xyz 0   1
 C  -21.23714  -6.00849  -1.52750
 C  -19.98774  -5.38980  -1.59176
 C  -19.00643  -5.96439  -0.72509
 C  -19.48335  -7.04224  0.02732
 S  -21.07175  -7.22502  -0.41314
 H  -19.81411  -4.40073  -2.12180
 C  -17.55150  -5.27319  -0.76556
 C  -16.97298  -4.91941  -2.35626
 C  -17.26893  -3.47149  -3.24968
 H  -17.37052  -2.64674  -2.44174
 H  -16.28845  -3.28448  -3.83949
 H  -15.82420  -4.98518  -2.27473
 H  -17.35933  -5.77217  -3.02802
 H  -17.55306  -4.27689  -0.17119
 H  -16.76373  -5.98854  -0.29844
 C  -18.50780  -3.27500  -4.30307
 C  -18.44375  -1.85567  -5.24514
 C  -17.87076  -1.91978  -6.82937
 H  -18.52067  -2.65369  -7.44326
 H  -16.76990  -2.27192  -6.82910
 H  -17.93980  -0.86114  -7.29543
 H  -19.49014  -1.38726  -5.26717
 H  -17.69609  -1.18116  -4.69384
 H  -18.54046  -4.17069  -5.03014
 H  -19.51140  -3.20336  -3.74159
 C  16.49843  0.68858  4.82197
 C  16.59795  1.82343  4.01568
 C  16.10274  3.01810  4.62542
 C  15.60969  2.82562  5.91971
 S  15.80961  1.21016  6.23709
 H  16.78848  1.74396  2.89182
 C  16.21309  4.36861  3.74185
 C  17.77352  4.40611  3.00182
 C  18.31511  5.59486  1.92474
 H  18.50979  6.55304  2.53881
 H  17.46406  5.79623  1.16982
 H  18.51979  4.40101  3.88368
 H  17.88978  3.42796  2.40508
 H  15.41958  4.37174  2.89953
 H  16.08944  5.31996  4.39003
 C  19.68000  5.18929  1.11394
 C  21.15726  5.94304  1.45468
 C  22.18178  5.23007  2.57969
 H  21.62263  5.10114  3.58340
 H  23.10368  5.91503  2.73386
 H  22.53075  4.19895  2.18686
 H  21.73940  6.00077  0.45719
 H  20.92474  7.01337  1.81436
 H  19.48701  5.34757  -0.01847
 H  19.87194  4.05523  1.28268
 H  -22.10812  -5.75426  -2.07556
 H  -18.94282  -7.62124  0.73171
 H  16.79969  -0.29862  4.58054
 H  15.19499  3.55875  6.56325
*
