# ================================================================
# Orca input file made by Matty Jones
# ================================================================
! ZINDO/S 
! NOPOP
! NOMOPRINT
* xyz 0   1
 C  18.78375  4.40735  2.53986
 C  18.05395  3.27558  2.90647
 C  18.68983  2.46729  3.89974
 C  19.92799  2.96331  4.31956
 S  20.16745  4.35625  3.45192
 H  17.12762  2.90958  2.34497
 C  18.03678  1.10544  4.48745
 C  17.04839  0.00610  3.60965
 C  15.38275  0.28159  3.89879
 H  15.20954  -0.06143  4.99348
 H  15.21787  1.42503  3.84502
 H  17.31106  -1.07243  3.89362
 H  17.23441  0.18252  2.48854
 H  17.41077  1.38377  5.42693
 H  18.91582  0.41755  4.84481
 C  14.26530  -0.46959  2.96904
 C  13.56477  -2.00972  3.19238
 C  13.87541  -2.96066  4.54202
 H  13.47096  -2.43032  5.48711
 H  15.01338  -3.13769  4.64315
 H  13.33567  -3.97881  4.41341
 H  13.89769  -2.63548  2.27674
 H  12.41980  -1.86358  3.14193
 H  13.34097  0.24218  2.96192
 H  14.69294  -0.49337  1.89028
 C  -17.53930  -2.71818  -7.44370
 C  -16.94761  -2.35094  -6.23418
 C  -17.72734  -1.43978  -5.45567
 C  -18.94085  -1.08575  -6.05348
 S  -18.98459  -1.90715  -7.49355
 H  -16.15158  -2.96657  -5.71685
 C  -17.04248  -1.00589  -4.06788
 C  -15.43519  -0.53680  -4.39132
 C  -14.38040  -0.22309  -3.12541
 H  -13.31569  -0.19081  -3.59171
 H  -14.42578  -1.14466  -2.42288
 H  -14.92136  -1.34960  -5.02572
 H  -15.51429  0.43076  -5.02075
 H  -17.60054  -0.10346  -3.60109
 H  -17.03785  -1.88480  -3.31511
 C  -14.59915  1.13556  -2.27366
 C  -15.44260  0.81496  -0.84222
 C  -17.11468  0.85919  -0.98284
 H  -17.42021  1.64849  -1.77175
 H  -17.57084  1.13976  0.04374
 H  -17.50160  -0.18349  -1.30179
 H  -15.14116  -0.23185  -0.46339
 H  -15.12454  1.60516  -0.06509
 H  -15.20079  1.90687  -2.88786
 H  -13.57720  1.59579  -1.99113
 H  18.51094  5.14420  1.82837
 H  20.57753  2.53804  5.04126
 H  -17.14735  -3.37671  -8.17603
 H  -19.67838  -0.42972  -5.66711
*
