# ================================================================
# Orca input file made by Matty Jones
# ================================================================
! ZINDO/S 
! NOPOP
! NOMOPRINT
* xyz 0   1
 C  12.48459  4.68011  -4.31697
 C  13.68411  5.35311  -4.08009
 C  14.60141  4.63668  -3.24971
 C  14.12381  3.39168  -2.82876
 S  12.61296  3.24489  -3.49675
 H  13.89919  6.50227  -3.90775
 C  16.09810  4.99128  -2.67446
 C  17.54447  5.66631  -3.28916
 C  17.87008  7.31094  -3.04159
 H  18.40578  7.70374  -3.98746
 H  16.86184  7.85812  -2.92270
 H  18.41730  5.06971  -2.82758
 H  17.53036  5.49100  -4.42791
 H  15.90081  5.69063  -1.75104
 H  16.51753  3.98882  -2.22618
 C  18.81450  7.61552  -1.73528
 C  18.04212  7.84063  -0.24469
 C  19.07165  8.24205  1.03085
 H  20.04334  7.61963  0.95672
 H  18.54016  8.01523  2.03332
 H  19.32553  9.36965  0.97325
 H  17.27165  8.68769  -0.36451
 H  17.50338  6.85966  0.02872
 H  19.55797  6.73966  -1.59201
 H  19.42605  8.57773  -1.93809
 C  -18.74212  -10.77542  2.03155
 C  -17.90103  -9.68065  2.23637
 C  -18.52597  -8.58091  2.90291
 C  -19.86729  -8.80844  3.22605
 S  -20.20469  -10.33683  2.67777
 H  -16.80924  -9.63098  1.90919
 C  -17.52122  -7.32595  3.12678
 C  -17.76710  -5.75768  2.54207
 C  -16.38872  -4.81743  2.91406
 H  -16.70986  -3.70833  2.86922
 H  -16.07212  -5.07100  3.99413
 H  -17.90261  -5.79226  1.40311
 H  -18.68579  -5.29420  3.04778
 H  -17.41896  -7.18251  4.28539
 H  -16.45349  -7.61782  2.74609
 C  -15.11822  -5.04817  1.90644
 C  -14.89366  -4.05365  0.55359
 C  -13.86013  -2.74703  0.80239
 H  -14.38879  -1.96139  1.46586
 H  -13.59013  -2.27555  -0.22044
 H  -12.89438  -3.11297  1.32434
 H  -14.45007  -4.69918  -0.29230
 H  -15.92119  -3.64629  0.23066
 H  -14.14653  -4.95995  2.53429
 H  -15.17557  -6.12979  1.49274
 H  11.66444  5.01574  -4.89861
 H  14.62293  2.68888  -2.21188
 H  -18.49746  -11.69367  1.56190
 H  -20.52972  -8.14330  3.71836
*
