# ================================================================
# Orca input file made by Matty Jones
# ================================================================
! ZINDO/S 
! NOPOP
! NOMOPRINT
* xyz 0   1
 C  16.83439  5.98113  -1.48318
 C  16.33858  4.78744  -2.00965
 C  16.93084  3.61226  -1.45069
 C  17.89921  3.87935  -0.47793
 S  17.97065  5.53221  -0.36226
 H  15.59006  4.71996  -2.87054
 C  16.47490  2.13170  -1.93344
 C  14.81641  1.64482  -1.83239
 C  13.33869  1.64775  -2.73215
 H  12.85701  0.62863  -2.43521
 H  12.72304  2.48330  -2.20167
 H  14.94435  0.50563  -1.62992
 H  14.49168  2.15621  -0.84285
 H  17.08010  1.30520  -1.38672
 H  16.72188  2.03137  -3.07336
 C  13.02714  1.83041  -4.32591
 C  12.82130  0.39119  -5.20782
 C  11.26208  -0.26040  -5.21634
 H  11.18015  -1.05486  -4.37819
 H  11.06093  -0.75960  -6.24122
 H  10.48627  0.57722  -5.03386
 H  13.10472  0.61673  -6.30254
 H  13.53912  -0.39904  -4.77833
 H  12.05262  2.44254  -4.45275
 H  13.89605  2.41162  -4.81774
 C  -16.59471  -6.70622  2.85231
 C  -15.75363  -5.61144  3.05713
 C  -16.37856  -4.51170  3.72367
 C  -17.71988  -4.73923  4.04680
 S  -18.05728  -6.26762  3.49852
 H  -14.66184  -5.56178  2.72994
 C  -15.37382  -3.25675  3.94754
 C  -15.61969  -1.68848  3.36283
 C  -14.24132  -0.74823  3.73482
 H  -14.56245  0.36087  3.68997
 H  -13.92471  -1.00180  4.81489
 H  -15.75520  -1.72306  2.22387
 H  -16.53838  -1.22500  3.86853
 H  -15.27155  -3.11331  5.10614
 H  -14.30608  -3.54862  3.56685
 C  -12.97081  -0.97897  2.72719
 C  -12.74625  0.01556  1.37435
 C  -11.71272  1.32218  1.62315
 H  -12.24139  2.10782  2.28662
 H  -11.44272  1.79365  0.60032
 H  -10.74697  0.95623  2.14510
 H  -12.30267  -0.62998  0.52845
 H  -13.77378  0.42291  1.05141
 H  -11.99912  -0.89075  3.35505
 H  -13.02816  -2.06059  2.31350
 H  16.54545  6.96687  -1.74478
 H  18.46843  3.17322  0.07068
 H  -16.35005  -7.62446  2.38266
 H  -18.38232  -4.07410  4.53912
*
