# ================================================================
# Orca input file made by Matty Jones
# ================================================================
! ZINDO/S 
! NOPOP
! NOMOPRINT
* xyz 0   1
 C  17.31805  2.59712  28.93188
 C  17.87267  1.73052  27.98886
 C  19.01672  1.01237  28.45755
 C  19.36724  1.31341  29.77733
 S  18.25881  2.43650  30.28771
 H  17.57890  1.89110  26.89876
 C  19.62381  0.00728  27.33460
 C  18.41943  -0.27476  26.08175
 C  17.04248  -1.27822  26.17461
 H  17.40552  -2.35304  25.94958
 H  16.70875  -1.23000  27.28395
 H  19.08566  -0.88144  25.32795
 H  18.15072  0.68458  25.51239
 H  19.88594  -1.01854  27.79540
 H  20.55270  0.46804  26.82577
 C  15.70639  -0.99490  25.25191
 C  15.46962  0.39437  24.29514
 C  13.98972  0.43229  23.47017
 H  13.21480  -0.21634  24.03275
 H  14.13871  0.01864  22.39993
 H  13.61142  1.52459  23.41320
 H  16.31445  0.44439  23.51673
 H  15.51401  1.31436  24.98474
 H  15.60586  -1.88375  24.51317
 H  14.79031  -1.01865  25.96490
 C  -19.01872  -3.76844  -28.75000
 C  -18.42105  -3.07358  -27.69745
 C  -19.25770  -2.07585  -27.10686
 C  -20.52240  -1.98240  -27.69603
 S  -20.53866  -3.12311  -28.89975
 H  -17.35675  -3.26226  -27.34190
 C  -18.83398  -1.11016  -25.88023
 C  -17.50913  -0.09705  -26.16807
 C  -17.09983  1.00035  -24.94119
 H  -18.06546  1.54391  -24.61327
 H  -16.68355  0.40071  -24.04679
 H  -16.58990  -0.76117  -26.36368
 H  -17.75429  0.51664  -27.11263
 H  -19.71571  -0.45518  -25.50483
 H  -18.51225  -1.78529  -24.97154
 C  -16.00037  2.09180  -25.45076
 C  -14.39645  1.64783  -25.18440
 C  -13.78828  0.62695  -26.37386
 H  -14.55591  0.51982  -27.23285
 H  -13.58541  -0.41327  -25.90670
 H  -12.80073  1.06340  -26.78974
 H  -13.75911  2.60921  -25.17604
 H  -14.31692  1.12653  -24.16122
 H  -16.17640  3.09414  -24.89776
 H  -16.13234  2.27846  -26.58520
 H  16.47348  3.22548  28.80752
 H  20.17276  0.90855  30.33485
 H  -18.59110  -4.54500  -29.33112
 H  -21.30654  -1.32095  -27.42917
*
