# ================================================================
# Orca input file made by Matty Jones
# ================================================================
! ZINDO/S 
! NOPOP
! NOMOPRINT
* xyz 0   1
 C  22.66823  -1.67658  3.20068
 C  23.92750  -1.54142  2.61426
 C  25.00843  -1.96706  3.44774
 C  24.60064  -2.44071  4.69861
 S  22.94740  -2.30978  4.70741
 H  24.28266  -0.56677  2.06136
 C  26.52645  -1.87249  2.89881
 C  26.94020  -0.37142  2.18797
 C  28.47046  -0.08732  1.49670
 H  28.29642  0.65669  0.62546
 H  28.82319  -1.09566  1.05142
 H  26.19602  -0.18839  1.32740
 H  26.79135  0.42577  3.00726
 H  27.28054  -2.04695  3.76759
 H  26.70647  -2.68553  2.08923
 C  29.63996  0.50612  2.45810
 C  31.11375  0.93404  1.72922
 C  31.22599  0.82437  0.05365
 H  31.04775  -0.26958  -0.27568
 H  32.28461  1.16038  -0.27550
 H  30.43525  1.51521  -0.43184
 H  31.33766  2.02801  2.01961
 H  31.92832  0.24937  2.17509
 H  29.88784  -0.28059  3.27085
 H  29.24258  1.46008  2.98124
 C  -22.49849  0.83276  -4.11944
 C  -23.77548  0.30682  -3.91800
 C  -24.61744  1.11725  -3.09423
 C  -24.00217  2.28903  -2.64293
 S  -22.47037  2.26111  -3.27794
 H  -24.13505  -0.67403  -4.38106
 C  -26.09914  0.54194  -2.79371
 C  -27.51577  1.48468  -2.76304
 C  -28.88109  0.49369  -2.53393
 H  -29.76745  1.03182  -3.04843
 H  -28.68258  -0.49905  -3.09476
 H  -27.61824  2.04566  -3.75846
 H  -27.50875  2.20961  -1.88461
 H  -26.08858  0.01090  -1.74850
 H  -26.33281  -0.27694  -3.59227
 C  -29.28963  0.16808  -0.99384
 C  -30.62187  -0.86994  -0.87126
 C  -32.10657  -0.08117  -0.83952
 H  -32.91294  -0.80557  -0.43370
 H  -32.38692  0.24934  -1.91256
 H  -32.03570  0.84622  -0.15155
 H  -30.51357  -1.47815  0.10160
 H  -30.61092  -1.58490  -1.77478
 H  -28.40111  -0.34059  -0.45600
 H  -29.54834  1.14872  -0.44022
 H  21.73100  -1.42704  2.77299
 H  25.21877  -2.80680  5.47803
 H  -21.71238  0.40851  -4.69008
 H  -24.42607  3.03828  -2.02444
*
