# ================================================================
# Orca input file made by Matty Jones
# ================================================================
! ZINDO/S 
! NOPOP
! NOMOPRINT
* xyz 0   1
 C  16.30837  7.00784  4.45451
 C  15.57858  5.87607  4.82112
 C  16.21446  5.06779  5.81439
 C  17.45262  5.56380  6.23421
 S  17.69208  6.95674  5.36657
 H  14.65225  5.51008  4.25962
 C  15.56140  3.70594  6.40210
 C  14.57302  2.60660  5.52430
 C  12.90737  2.88208  5.81344
 H  12.73416  2.53907  6.90813
 H  12.74250  4.02553  5.75966
 H  14.83568  1.52807  5.80827
 H  14.75904  2.78301  4.40319
 H  14.93539  3.98426  7.34158
 H  16.44044  3.01805  6.75946
 C  11.78992  2.13091  4.88368
 C  11.08940  0.59078  5.10703
 C  11.40004  -0.36017  6.45667
 H  10.99558  0.17017  7.40176
 H  12.53800  -0.53720  6.55780
 H  10.86029  -1.37831  6.32806
 H  11.42232  -0.03498  4.19139
 H  9.94442  0.73692  5.05658
 H  10.86559  2.84268  4.87657
 H  12.21756  2.10713  3.80493
 C  -16.15011  -6.67618  -8.60247
 C  -14.95747  -6.12061  -8.13681
 C  -15.13476  -4.97681  -7.29744
 C  -16.47416  -4.62744  -7.09930
 S  -17.35617  -5.73651  -7.96095
 H  -13.93280  -6.55234  -8.38917
 C  -13.74562  -4.33838  -6.76148
 C  -13.30828  -2.70535  -6.80353
 C  -13.77116  -1.78947  -5.47122
 H  -14.86030  -2.03341  -5.19569
 H  -13.68940  -0.67189  -5.75567
 H  -12.15727  -2.65389  -6.88671
 H  -13.77488  -2.24012  -7.74919
 H  -13.66306  -4.62258  -5.62639
 H  -12.85317  -4.87593  -7.29656
 C  -12.79796  -2.11731  -4.20704
 C  -13.14225  -1.27145  -2.79266
 C  -12.15341  0.06582  -2.55596
 H  -12.50109  0.93205  -3.23823
 H  -11.06011  -0.21846  -2.81124
 H  -12.21677  0.39082  -1.44680
 H  -14.23437  -0.90374  -2.84776
 H  -13.02311  -1.98668  -1.89757
 H  -11.70144  -1.88886  -4.49896
 H  -12.88009  -3.24431  -3.95221
 H  16.03556  7.74469  3.74302
 H  18.10216  5.13854  6.95591
 H  -16.26140  -7.52078  -9.23324
 H  -16.84757  -3.82230  -6.51972
*
