# ================================================================
# Orca input file made by Matty Jones
# ================================================================
! ZINDO/S 
! NOPOP
! NOMOPRINT
* xyz 0   1
 C  13.24197  14.27986  -5.05394
 C  13.60332  13.11016  -5.72411
 C  14.90601  12.62462  -5.39019
 C  15.57669  13.41491  -4.45160
 S  14.53723  14.65537  -4.08937
 H  12.78297  12.34314  -5.99397
 C  15.28069  11.28185  -6.20787
 C  14.71349  11.30842  -7.87250
 C  13.79647  12.59845  -8.57414
 H  12.86685  12.78034  -7.91663
 H  14.48866  13.52177  -8.52834
 H  15.66048  11.21795  -8.51790
 H  14.06329  10.36805  -7.98799
 H  14.78298  10.35908  -5.71241
 H  16.42603  11.12794  -6.24385
 C  13.11568  12.53004  -10.06596
 C  11.47075  12.08253  -10.07017
 C  10.34272  13.33678  -9.97252
 H  10.76073  14.18308  -9.30484
 H  9.36048  12.92930  -9.51441
 H  10.13197  13.74469  -11.03457
 H  11.29336  11.37980  -9.17487
 H  11.27009  11.51305  -11.05206
 H  13.18425  13.57017  -10.56395
 H  13.68341  11.76364  -10.71390
 C  -8.61612  -11.43163  6.07140
 C  -9.69363  -12.23232  6.45319
 C  -10.74508  -11.52127  7.11131
 C  -10.49657  -10.15219  7.24988
 S  -9.00991  -9.89710  6.56054
 H  -9.73455  -13.35268  6.23325
 C  -11.96287  -12.51584  7.52366
 C  -13.61207  -12.34124  7.17901
 C  -14.70606  -11.61601  8.22337
 H  -14.15865  -10.78974  8.81390
 H  -15.55214  -11.14042  7.59757
 H  -13.65626  -11.73433  6.19141
 H  -14.00940  -13.40479  6.96314
 H  -11.94379  -12.59286  8.70094
 H  -11.71877  -13.59034  7.13053
 C  -15.33294  -12.71458  9.26138
 C  -16.65880  -13.64530  8.75589
 C  -16.31020  -15.18665  8.16917
 H  -17.29909  -15.77966  8.05688
 H  -15.61841  -15.73360  8.91851
 H  -15.78798  -15.10460  7.14148
 H  -17.19723  -13.06586  7.91764
 H  -17.36771  -13.76438  9.65701
 H  -14.49880  -13.46285  9.55623
 H  -15.67262  -12.15627  10.21760
 H  12.33146  14.81526  -5.14286
 H  16.54644  13.25469  -4.05472
 H  -7.73236  -11.73960  5.57367
 H  -11.12650  -9.42885  7.70106
*
