# ================================================================
# Orca input file made by Matty Jones
# ================================================================
! ZINDO/S 
! NOPOP
! NOMOPRINT
* xyz 0   1
 C  -3.98781  1.02110  -0.87152
 C  -3.43319  0.15450  -1.81453
 C  -2.28914  -0.56366  -1.34584
 C  -1.93862  -0.26261  -0.02606
 S  -3.04705  0.86048  0.48432
 H  -3.72696  0.31508  -2.90463
 C  -1.68205  -1.56874  -2.46879
 C  -2.88643  -1.85078  -3.72164
 C  -4.26338  -2.85424  -3.62878
 H  -3.90034  -3.92906  -3.85381
 H  -4.59711  -2.80603  -2.51944
 H  -2.22020  -2.45746  -4.47544
 H  -3.15514  -0.89144  -4.29100
 H  -1.41992  -2.59456  -2.00799
 H  -0.75316  -1.10799  -2.97762
 C  -5.59947  -2.57093  -4.55148
 C  -5.83624  -1.18165  -5.50825
 C  -7.31614  -1.14373  -6.33322
 H  -8.09106  -1.79236  -5.77064
 H  -7.16715  -1.55738  -7.40346
 H  -7.69444  -0.05144  -6.39019
 H  -4.99141  -1.13163  -6.28666
 H  -5.79185  -0.26166  -4.81865
 H  -5.70000  -3.45978  -5.29022
 H  -6.51555  -2.59467  -3.83849
 C  -0.55912  -0.56221  0.99513
 C  0.62235  0.10731  1.31727
 C  1.45091  -0.58771  2.25252
 C  0.92101  -1.81221  2.67100
 S  -0.52443  -1.96832  1.87304
 H  0.91335  1.12582  0.88948
 C  2.92330  -0.23720  2.93234
 C  3.89566  1.03673  3.68994
 C  5.13975  2.07023  3.10731
 H  4.72590  2.58923  2.16462
 H  6.01199  1.37241  2.80254
 H  4.39275  0.49951  4.58307
 H  3.08975  1.76341  4.08219
 H  2.98127  -0.94547  3.85423
 H  3.70570  -0.60564  2.13770
 C  5.74267  3.21685  4.12519
 C  6.79103  2.92734  5.45184
 C  8.47492  2.93322  5.31352
 H  8.77533  3.00914  4.20098
 H  8.89292  1.95119  5.76446
 H  8.90945  3.83373  5.89801
 H  6.54227  3.76028  6.21647
 H  6.48656  1.90857  5.89749
 H  4.83841  3.78361  4.57473
 H  6.33970  3.95860  3.45983
 H  -4.83238  1.64946  -0.99587
 H  1.35279  -2.49724  3.35504
*
