# ================================================================
# Orca input file made by Matty Jones
# ================================================================
! ZINDO/S 
! NOPOP
! NOMOPRINT
* xyz 0   1
 C  6.69014  16.60291  -3.24412
 C  7.24476  15.73631  -4.18714
 C  8.38881  15.01816  -3.71844
 C  8.73933  15.31920  -2.39867
 S  7.63090  16.44229  -1.88829
 H  6.95099  15.89689  -5.27723
 C  8.99590  14.01307  -4.84140
 C  7.79152  13.73103  -6.09424
 C  6.41457  12.72757  -6.00138
 H  6.77761  11.65275  -6.22641
 H  6.08084  12.77578  -4.89204
 H  8.45775  13.12435  -6.84804
 H  7.52281  14.69037  -6.66360
 H  9.25803  12.98725  -4.38059
 H  9.92479  14.47383  -5.35023
 C  5.07848  13.01088  -6.92409
 C  4.84171  14.40016  -7.88085
 C  3.36181  14.43808  -8.70582
 H  2.58689  13.78945  -8.14324
 H  3.51080  14.02443  -9.77606
 H  2.98351  15.53038  -8.76279
 H  5.68654  14.45018  -8.65926
 H  4.88610  15.32015  -7.19126
 H  4.97795  12.12204  -7.66282
 H  4.16240  12.98714  -6.21109
 C  -8.55346  -17.91546  2.68934
 C  -7.37663  -17.37525  3.21004
 C  -7.58097  -16.25486  4.07446
 C  -8.92595  -15.90862  4.23715
 S  -9.77952  -16.99171  3.31587
 H  -6.36001  -17.83409  2.98119
 C  -6.20481  -15.61555  4.63350
 C  -5.82879  -13.95979  4.60492
 C  -6.36311  -13.06890  5.93618
 H  -7.44978  -13.35510  6.17286
 H  -6.30591  -11.94013  5.69881
 H  -4.67772  -13.86381  4.55603
 H  -6.29304  -13.50539  3.65691
 H  -6.16401  -15.88370  5.75197
 H  -5.27842  -16.14710  4.12704
 C  -5.42751  -13.42390  7.21516
 C  -5.89783  -12.68053  8.65047
 C  -4.98763  -11.31974  9.01561
 H  -5.25966  -10.95790  10.08102
 H  -5.20997  -10.48220  8.24927
 H  -3.86334  -11.59481  8.97801
 H  -7.00087  -12.35740  8.54650
 H  -5.80118  -13.43761  9.51182
 H  -4.33693  -13.10844  6.98946
 H  -5.44615  -14.56711  7.39716
 H  5.84557  17.23127  -3.36847
 H  9.54485  14.91434  -1.84114
 H  -8.64427  -18.74201  2.03195
 H  -9.31788  -15.11918  4.82602
*
