# ================================================================
# Orca input file made by Matty Jones
# ================================================================
! ZINDO/S 
! NOPOP
! NOMOPRINT
* xyz 0   1
 C  10.42386  14.98359  -1.98213
 C  9.73963  13.77098  -2.07863
 C  10.31843  12.71143  -1.31272
 C  11.46548  13.08931  -0.60787
 S  11.69988  14.69193  -0.96439
 H  8.66582  13.74935  -2.45815
 C  9.64057  11.27796  -1.34963
 C  7.95816  11.33973  -1.14040
 C  7.29635  11.53077  -2.67692
 H  6.32966  12.15171  -2.58157
 H  8.04709  12.08588  -3.35614
 H  7.58680  10.37117  -0.65212
 H  7.68170  12.24610  -0.48694
 H  9.98973  10.56143  -0.52099
 H  9.87234  10.76227  -2.37665
 C  7.01024  10.09942  -3.39222
 C  6.55700  10.19610  -5.01540
 C  6.50779  11.73994  -5.68566
 H  6.22548  11.65337  -6.80546
 H  7.54587  12.24165  -5.59152
 H  5.71387  12.37493  -5.13378
 H  7.31275  9.57345  -5.62497
 H  5.50664  9.73212  -5.11654
 H  7.96020  9.44116  -3.33191
 H  6.15441  9.56337  -2.82488
 C  -10.62424  -15.49509  -0.21217
 C  -9.43159  -14.93951  0.25349
 C  -9.60889  -13.79571  1.09286
 C  -10.94829  -13.44634  1.29100
 S  -11.83030  -14.55542  0.42935
 H  -8.40693  -15.37124  0.00113
 C  -8.21975  -13.15728  1.62882
 C  -7.78241  -11.52426  1.58677
 C  -8.24529  -10.60837  2.91908
 H  -9.33443  -10.85231  3.19461
 H  -8.16353  -9.49079  2.63463
 H  -6.63140  -11.47279  1.50359
 H  -8.24901  -11.05902  0.64111
 H  -8.13719  -13.44148  2.76391
 H  -7.32730  -13.69483  1.09374
 C  -7.27209  -10.93621  4.18326
 C  -7.61638  -10.09035  5.59764
 C  -6.62754  -8.75308  5.83434
 H  -6.97522  -7.88685  5.15207
 H  -5.53424  -9.03736  5.57906
 H  -6.69090  -8.42808  6.94350
 H  -8.70850  -9.72264  5.54254
 H  -7.49723  -10.80558  6.49273
 H  -6.17557  -10.70776  3.89134
 H  -7.35421  -12.06321  4.43809
 H  10.17931  15.89817  -2.45894
 H  12.06059  12.47917  0.02236
 H  -10.73553  -16.33968  -0.84294
 H  -11.32170  -12.64120  1.87058
*
