# ================================================================
# Orca input file made by Matty Jones
# ================================================================
! ZINDO/S 
! NOPOP
! NOMOPRINT
* xyz 0   1
 C  16.79820  -0.15782  -7.91085
 C  18.08953  0.29408  -8.18681
 C  19.12388  -0.50205  -7.60324
 C  18.64691  -1.58808  -6.86275
 S  16.99375  -1.50728  -6.96754
 H  18.48981  1.38819  -8.27439
 C  20.72596  -0.32330  -7.67928
 C  21.57586  1.00648  -7.00262
 C  21.99103  0.59295  -5.38941
 H  20.99004  0.53633  -4.81148
 H  22.45257  -0.46915  -5.42326
 H  22.54513  1.17351  -7.59137
 H  20.92525  1.94791  -7.00468
 H  21.25059  -1.26211  -7.22481
 H  21.01850  -0.28106  -8.81293
 C  23.01533  1.55958  -4.56902
 C  22.30987  2.83880  -3.72691
 C  22.17705  4.21985  -4.67390
 H  22.01444  5.13975  -3.99083
 H  21.27714  4.10319  -5.39198
 H  23.14729  4.36121  -5.28854
 H  21.25946  2.52346  -3.37656
 H  22.96633  3.08240  -2.81175
 H  23.58202  0.92022  -3.78420
 H  23.79349  2.00049  -5.30301
 C  -22.76679  -4.58406  7.83834
 C  -22.66727  -3.44921  7.03206
 C  -23.16249  -2.25454  7.64179
 C  -23.65553  -2.44701  8.93608
 S  -23.45561  -4.06248  9.25346
 H  -22.47674  -3.52867  5.90819
 C  -23.05213  -0.90403  6.75823
 C  -21.49170  -0.86653  6.01820
 C  -20.95011  0.32222  4.94112
 H  -20.75543  1.28040  5.55518
 H  -21.80116  0.52359  4.18619
 H  -20.74543  -0.87163  6.90005
 H  -21.37544  -1.84468  5.42145
 H  -23.84564  -0.90090  5.91590
 H  -23.17578  0.04732  7.40640
 C  -19.58523  -0.08335  4.13031
 C  -18.10796  0.67040  4.47105
 C  -17.08345  -0.04256  5.59606
 H  -17.64259  -0.17150  6.59977
 H  -16.16154  0.64240  5.75024
 H  -16.73447  -1.07368  5.20323
 H  -17.52582  0.72813  3.47356
 H  -18.34049  1.74073  4.83074
 H  -19.77821  0.07493  2.99791
 H  -19.39328  -1.21740  4.29906
 H  15.88500  0.27121  -8.23579
 H  19.22163  -2.31153  -6.34321
 H  -22.46553  -5.57126  7.59692
 H  -24.07023  -1.71388  9.57962
*
