# ================================================================
# Orca input file made by Matty Jones
# ================================================================
! ZINDO/S 
! NOPOP
! NOMOPRINT
* xyz 0   1
 C  -19.65878  3.64241  -6.16626
 C  -20.15459  2.44872  -6.69273
 C  -19.56233  1.27354  -6.13377
 C  -18.59396  1.54063  -5.16101
 S  -18.52252  3.19348  -5.04534
 H  -20.90311  2.38123  -7.55363
 C  -20.01827  -0.20702  -6.61653
 C  -21.67676  -0.69391  -6.51547
 C  -23.15448  -0.69097  -7.41523
 H  -23.63616  -1.71009  -7.11830
 H  -23.77013  0.14458  -6.88476
 H  -21.54882  -1.83309  -6.31301
 H  -22.00149  -0.18252  -5.52594
 H  -19.41307  -1.03352  -6.06980
 H  -19.77129  -0.30736  -7.75644
 C  -23.46603  -0.50832  -9.00899
 C  -23.67187  -1.94753  -9.89090
 C  -25.23109  -2.59912  -9.89943
 H  -25.31302  -3.39359  -9.06128
 H  -25.43224  -3.09832  -10.92431
 H  -26.00690  -1.76151  -9.71695
 H  -23.38845  -1.72199  -10.98563
 H  -22.95404  -2.73777  -9.46142
 H  -24.44055  0.10382  -9.13583
 H  -22.59712  0.07289  -9.50082
 C  26.02947  -0.05454  5.09052
 C  25.13666  -1.04033  5.51361
 C  24.07807  -0.55275  6.34181
 C  24.13529  0.82500  6.57387
 S  25.47379  1.35987  5.75366
 H  25.34761  -2.13735  5.86745
 C  22.99698  -1.63707  6.85684
 C  21.36666  -1.42505  7.28564
 C  20.60350  0.04511  7.60246
 H  21.17529  0.91084  7.10746
 H  19.52331  0.01137  7.20059
 H  20.76513  -1.87524  6.39955
 H  21.19786  -2.10860  8.20420
 H  23.45594  -2.14513  7.80881
 H  22.93445  -2.47510  6.03628
 C  20.61499  0.16320  9.22757
 C  19.90341  1.50603  9.91620
 C  19.14185  2.58215  8.87714
 H  18.60010  1.99025  8.04198
 H  19.93523  3.27957  8.40328
 H  18.36079  3.22052  9.43903
 H  19.19507  1.12106  10.72804
 H  20.77732  2.02247  10.42534
 H  20.05285  -0.75697  9.66407
 H  21.71129  0.11045  9.60082
 H  -19.94771  4.62815  -6.42786
 H  -18.02474  0.83450  -4.61241
 H  26.88285  -0.18300  4.47502
 H  23.46375  1.40592  7.15282
*
