# ================================================================
# Orca input file made by Matty Jones
# ================================================================
! ZINDO/S 
! NOPOP
! NOMOPRINT
* xyz 0   1
 C  14.65559  9.73230  6.90110
 C  15.90499  10.35099  6.83684
 C  16.88631  9.77641  7.70352
 C  16.40938  8.69856  8.45592
 S  14.82098  8.51578  8.01547
 H  16.07863  11.34007  6.30681
 C  18.34124  10.46761  7.66304
 C  18.91975  10.82138  6.07235
 C  18.62381  12.26931  5.17893
 H  18.52221  13.09405  5.98687
 H  19.60429  12.45632  4.58911
 H  20.06853  10.75561  6.15387
 H  18.53340  9.96862  5.40059
 H  18.33968  11.46390  8.25741
 H  19.12900  9.75225  8.13016
 C  17.38493  12.46579  4.12553
 C  17.44899  13.88513  3.18347
 C  18.02197  13.82102  1.59924
 H  17.37207  13.08711  0.98535
 H  19.12283  13.46888  1.59950
 H  17.95294  14.87965  1.13317
 H  16.40260  14.35354  3.16143
 H  18.19664  14.55964  3.73476
 H  17.35228  11.57011  3.39847
 H  16.38134  12.53743  4.68702
 C  -16.00983  -7.87218  -6.96604
 C  -16.00951  -9.00815  -6.15519
 C  -15.93098  -8.72646  -4.75564
 C  -15.86897  -7.36118  -4.45987
 S  -15.91394  -6.58532  -5.92495
 H  -15.65650  -10.00889  -6.59783
 C  -15.96461  -10.09637  -3.88188
 C  -17.31706  -11.00824  -4.54956
 C  -18.07363  -12.54132  -4.39073
 H  -19.20580  -12.35983  -4.27053
 H  -17.65637  -13.03514  -3.43833
 H  -17.10531  -11.04564  -5.68137
 H  -18.19235  -10.27409  -4.35397
 H  -16.15831  -9.88768  -2.76632
 H  -15.00483  -10.71909  -4.02349
 C  -17.81431  -13.51889  -5.68058
 C  -18.59322  -15.02788  -5.70132
 C  -20.09294  -15.11777  -6.47063
 H  -20.92148  -15.26529  -5.67640
 H  -20.09290  -16.02026  -7.19687
 H  -20.29085  -14.14524  -7.06375
 H  -18.74158  -15.35494  -4.60612
 H  -17.88835  -15.77119  -6.23120
 H  -16.67984  -13.72774  -5.76788
 H  -18.15844  -12.96422  -6.63837
 H  13.78462  9.98654  6.35305
 H  16.94991  8.11955  9.16032
 H  -16.06065  -7.83911  -8.02431
 H  -15.80633  -6.91545  -3.50019
*
