# ================================================================
# Orca input file made by Matty Jones
# ================================================================
! ZINDO/S 
! NOPOP
! NOMOPRINT
* xyz 0   1
 C  -11.26802  17.30439  26.54180
 C  -10.71340  16.43779  25.59878
 C  -9.56935  15.71963  26.06747
 C  -9.21883  16.02068  27.38725
 S  -10.32726  17.14377  27.89763
 H  -11.00717  16.59837  24.50868
 C  -8.96226  14.71455  24.94452
 C  -10.16664  14.43251  23.69168
 C  -11.54359  13.42905  23.78453
 H  -11.18055  12.35422  23.55950
 H  -11.87732  13.47726  24.89387
 H  -9.50041  13.82582  22.93787
 H  -10.43535  15.39185  23.12231
 H  -8.70013  13.68873  25.40532
 H  -8.03337  15.17530  24.43569
 C  -12.87968  13.71236  22.86183
 C  -13.11645  15.10164  21.90506
 C  -14.59635  15.13956  21.08010
 H  -15.37127  14.49093  21.64268
 H  -14.44736  14.72591  20.00985
 H  -14.97465  16.23185  21.02312
 H  -12.27162  15.15166  21.12666
 H  -13.07206  16.02163  22.59466
 H  -12.98021  12.82351  22.12310
 H  -13.79576  13.68861  23.57482
 C  12.86297  -10.54962  -26.17636
 C  11.97370  -11.57708  -25.85791
 C  12.36359  -12.35629  -24.72430
 C  13.56681  -11.94201  -24.14468
 S  14.07775  -10.65159  -25.05252
 H  11.01516  -11.79308  -26.44133
 C  11.39917  -13.57732  -24.26336
 C  11.74562  -14.95729  -23.30787
 C  12.41278  -16.44121  -23.78629
 H  13.11109  -16.23194  -24.68376
 H  13.05495  -16.82894  -22.90343
 H  10.64879  -15.28540  -23.02294
 H  12.20791  -14.64830  -22.31773
 H  10.96091  -14.05614  -25.24167
 H  10.49816  -13.09183  -23.69422
 C  11.32195  -17.57972  -24.19927
 C  10.62901  -18.44939  -22.92014
 C  9.18714  -17.78001  -22.36139
 H  9.42159  -16.87550  -21.67961
 H  8.60333  -18.57777  -21.75932
 H  8.54952  -17.43400  -23.26292
 H  10.41146  -19.51951  -23.28628
 H  11.37673  -18.48235  -22.04580
 H  10.46237  -17.08852  -24.79614
 H  11.84214  -18.35968  -24.88075
 H  -12.11259  17.93275  26.41745
 H  -8.41331  15.61582  27.94477
 H  12.77937  -9.85133  -26.96945
 H  14.05097  -12.36433  -23.30157
*
