# ================================================================
# Orca input file made by Matty Jones
# ================================================================
! ZINDO/S 
! NOPOP
! NOMOPRINT
* xyz 0   1
 C  -0.16017  5.85576  -3.68250
 C  -0.56265  4.52736  -3.53663
 C  0.14717  3.81010  -2.52373
 C  1.11502  4.57600  -1.86646
 S  1.04261  6.07917  -2.56335
 H  -1.37424  4.03839  -4.17655
 C  -0.07020  2.26319  -2.08539
 C  -1.54780  1.55279  -1.65228
 C  -2.47921  0.87212  -2.87011
 H  -2.78236  1.71265  -3.60407
 H  -1.82541  0.10165  -3.43077
 H  -1.31750  0.71773  -0.88894
 H  -2.17791  2.37089  -1.13632
 H  0.30462  1.60168  -2.97680
 H  0.60965  2.00393  -1.18177
 C  -3.81333  0.13621  -2.29324
 C  -4.76018  -0.49597  -3.53754
 C  -5.77239  0.67942  -4.18834
 H  -6.77941  0.19643  -4.48966
 H  -5.26430  1.13658  -5.12299
 H  -5.96059  1.51234  -3.40720
 H  -4.07485  -0.90752  -4.36505
 H  -5.40832  -1.34656  -3.10972
 H  -3.50455  -0.74300  -1.60652
 H  -4.44837  0.87982  -1.67982
 C  4.64168  1.96451  1.72832
 C  3.91189  0.83274  2.09493
 C  4.54776  0.02446  3.08820
 C  5.78592  0.52047  3.50802
 S  6.02538  1.91341  2.64038
 H  2.98555  0.46675  1.53343
 C  3.89471  -1.33739  3.67591
 C  2.90633  -2.43673  2.79811
 C  1.24068  -2.16125  3.08725
 H  1.06747  -2.50426  4.18194
 H  1.07580  -1.01780  3.03347
 H  3.16899  -3.51526  3.08208
 H  3.09235  -2.26032  1.67700
 H  3.26870  -1.05907  4.61539
 H  4.77375  -2.02528  4.03327
 C  0.12323  -2.91242  2.15749
 C  -0.57730  -4.45255  2.38084
 C  -0.26666  -5.40350  3.73047
 H  -0.67111  -4.87316  4.67557
 H  0.87131  -5.58053  3.83161
 H  -0.80640  -6.42164  3.60187
 H  -0.24437  -5.07831  1.46520
 H  -1.72227  -4.30641  2.33039
 H  -0.80110  -2.20065  2.15038
 H  0.55087  -2.93620  1.07874
 H  -0.54277  6.57101  -4.36488
 H  1.75994  4.26164  -1.08617
 H  4.36887  2.70136  1.01683
 H  6.43546  0.09521  4.22972
*
