# ================================================================
# Orca input file made by Matty Jones
# ================================================================
! ZINDO/S 
! NOPOP
! NOMOPRINT
* xyz 0   1
 C  13.71569  8.90043  1.91135
 C  13.31321  7.57203  2.05722
 C  14.02303  6.85477  3.07012
 C  14.99087  7.62067  3.72739
 S  14.91847  9.12384  3.03050
 H  12.50162  7.08306  1.41730
 C  13.80566  5.30786  3.50846
 C  12.32806  4.59746  3.94157
 C  11.39665  3.91679  2.72374
 H  11.09350  4.75732  1.98978
 H  12.05045  3.14632  2.16308
 H  12.55836  3.76240  4.70491
 H  11.69795  5.41556  4.45753
 H  14.18047  4.64635  2.61705
 H  14.48551  5.04860  4.41208
 C  10.06253  3.18088  3.30061
 C  9.11568  2.54870  2.05631
 C  8.10346  3.72409  1.40551
 H  7.09645  3.24110  1.10419
 H  8.61156  4.18125  0.47086
 H  7.91527  4.55701  2.18665
 H  9.80101  2.13715  1.22880
 H  8.46754  1.69811  2.48413
 H  10.37131  2.30167  3.98733
 H  9.42749  3.92449  3.91403
 C  -13.94094  -8.67484  -5.73481
 C  -12.74830  -8.11927  -5.26915
 C  -12.92559  -6.97547  -4.42978
 C  -14.26500  -6.62610  -4.23164
 S  -15.14700  -7.73518  -5.09329
 H  -11.72363  -8.55100  -5.52151
 C  -11.53645  -6.33704  -3.89382
 C  -11.09912  -4.70401  -3.93587
 C  -11.56200  -3.78813  -2.60356
 H  -12.65114  -4.03207  -2.32803
 H  -11.48023  -2.67055  -2.88801
 H  -9.94811  -4.65255  -4.01905
 H  -11.56571  -4.23878  -4.88153
 H  -11.45390  -6.62124  -2.75873
 H  -10.64400  -6.87459  -4.42890
 C  -10.58879  -4.11597  -1.33938
 C  -10.93308  -3.27011  0.07500
 C  -9.94424  -1.93284  0.31170
 H  -10.29192  -1.06661  -0.37057
 H  -8.85094  -2.21712  0.05642
 H  -10.00760  -1.60784  1.42086
 H  -12.02520  -2.90240  0.01990
 H  -10.81394  -3.98534  0.97009
 H  -9.49227  -3.88752  -1.63130
 H  -10.67092  -5.24297  -1.08455
 H  13.33309  9.61568  1.22897
 H  15.63580  7.30631  4.50768
 H  -14.05224  -9.51944  -6.36558
 H  -14.63841  -5.82096  -3.65206
*
