# ================================================================
# Orca input file made by Matty Jones
# ================================================================
! ZINDO/S 
! NOPOP
! NOMOPRINT
* xyz 0   1
 C  -2.71984  5.31558  -1.58932
 C  -3.15449  4.44699  -2.59158
 C  -2.94469  3.06374  -2.29683
 C  -2.34132  2.83895  -1.05557
 S  -2.10255  4.34233  -0.39734
 H  -2.91570  4.57773  -3.75092
 C  -3.42152  2.02590  -3.44529
 C  -4.45818  0.66207  -3.38552
 C  -6.09981  1.03338  -3.68531
 H  -6.47581  1.55277  -2.71968
 H  -6.10042  1.81501  -4.54092
 H  -4.11077  -0.08783  -4.18278
 H  -4.37919  0.19739  -2.33832
 H  -2.43486  1.56238  -3.88287
 H  -3.89329  2.65731  -4.31423
 C  -7.18162  -0.13260  -4.07923
 C  -7.45153  -0.33152  -5.74876
 C  -8.63484  -1.45194  -6.18384
 H  -9.68171  -0.98586  -6.02278
 H  -8.52514  -2.40100  -5.53211
 H  -8.50377  -1.72926  -7.30021
 H  -7.76224  0.69094  -6.17919
 H  -6.45776  -0.66682  -6.22451
 H  -6.82421  -1.15155  -3.67059
 H  -8.20450  0.12518  -3.60585
 C  2.44942  -3.17305  5.27761
 C  3.69882  -2.55436  5.21335
 C  4.68013  -3.12895  6.08002
 C  4.20321  -4.20680  6.83243
 S  2.61481  -4.38958  6.39197
 H  3.87246  -1.56529  4.68331
 C  6.13507  -2.43775  6.03955
 C  6.71358  -2.08397  4.44885
 C  6.41763  -0.63604  3.55543
 H  6.31604  0.18870  4.36337
 H  7.39812  -0.44904  2.96562
 H  7.86236  -2.14974  4.53038
 H  6.32723  -2.93673  3.77709
 H  6.13350  -1.44145  6.63392
 H  6.92283  -3.15310  6.50667
 C  5.17876  -0.43956  2.50204
 C  5.24282  0.97977  1.55997
 C  5.81580  0.91566  -0.02426
 H  5.16589  0.18175  -0.63815
 H  6.91666  0.56352  -0.02399
 H  5.74676  1.97430  -0.49032
 H  4.19642  1.44818  1.53794
 H  5.99047  1.65428  2.11127
 H  5.14610  -1.33525  1.77497
 H  4.17516  -0.36792  3.06353
 H  -2.77314  6.37424  -1.59001
 H  -2.08932  1.90350  -0.62540
 H  1.57844  -2.91882  4.72955
 H  4.74374  -4.78580  7.53683
*
