# ================================================================
# Orca input file made by Matty Jones
# ================================================================
! ZINDO/S 
! NOPOP
! NOMOPRINT
* xyz 0   1
 C  -5.58075  3.96500  39.58995
 C  -5.21940  2.79531  38.91978
 C  -3.91671  2.30977  39.25371
 C  -3.24603  3.10006  40.19230
 S  -4.28549  4.34052  40.55452
 H  -6.03974  2.02829  38.64993
 C  -3.54203  0.96700  38.43603
 C  -4.10922  0.99357  36.77140
 C  -5.02624  2.28359  36.06976
 H  -5.95586  2.46548  36.72727
 H  -4.33406  3.20692  36.11556
 H  -3.16224  0.90310  36.12600
 H  -4.75943  0.05320  36.65591
 H  -4.03973  0.04423  38.93148
 H  -2.39669  0.81309  38.40004
 C  -5.70704  2.21519  34.57793
 C  -7.35197  1.76767  34.57373
 C  -8.47999  3.02192  34.67138
 H  -8.06199  3.86823  35.33906
 H  -9.46223  2.61445  35.12949
 H  -8.69075  3.42983  33.60933
 H  -7.52936  1.06495  35.46903
 H  -7.55263  1.19820  33.59184
 H  -5.63847  3.25532  34.07995
 H  -5.13931  1.44879  33.93000
 C  1.45482  -3.53379  -38.73360
 C  2.74615  -3.08189  -39.00957
 C  3.78051  -3.87802  -38.42600
 C  3.30353  -4.96405  -37.68551
 S  1.65038  -4.88325  -37.79030
 H  3.14643  -1.98778  -39.09715
 C  5.38258  -3.69927  -38.50204
 C  6.23248  -2.36949  -37.82538
 C  6.64765  -2.78302  -36.21217
 H  5.64666  -2.83964  -35.63424
 H  7.10919  -3.84512  -36.24602
 H  7.20175  -2.20246  -38.41413
 H  5.58187  -1.42806  -37.82744
 H  5.90722  -4.63808  -38.04757
 H  5.67512  -3.65703  -39.63569
 C  7.67196  -1.81639  -35.39178
 C  6.96649  -0.53717  -34.54967
 C  6.83368  0.84388  -35.49666
 H  6.67106  1.76378  -34.81359
 H  5.93376  0.72722  -36.21474
 H  7.80392  0.98524  -36.11130
 H  5.91609  -0.85251  -34.19932
 H  7.62295  -0.29357  -33.63451
 H  8.23864  -2.45575  -34.60696
 H  8.45011  -1.37548  -36.12577
 H  -6.49126  4.50041  39.50104
 H  -2.27628  2.93984  40.58918
 H  0.54162  -3.10476  -39.05855
 H  3.87825  -5.68750  -37.16597
*
