# ================================================================
# Orca input file made by Matty Jones
# ================================================================
! ZINDO/S 
! NOPOP
! NOMOPRINT
* xyz 0   1
 C  -15.65991  -1.61698  -2.18150
 C  -16.41965  -2.69299  -1.72008
 C  -15.72526  -3.55080  -0.81111
 C  -14.41057  -3.15013  -0.55347
 S  -14.17975  -1.77494  -1.45125
 H  -17.49319  -2.91024  -2.04144
 C  -16.40272  -4.84702  -0.13286
 C  -17.37411  -5.94271  -1.00840
 C  -19.04025  -5.59988  -1.01040
 H  -19.38261  -5.59095  0.09456
 H  -19.16870  -4.53698  -1.44473
 H  -17.23763  -6.98327  -0.53575
 H  -17.01079  -5.95364  -2.09915
 H  -17.06837  -4.49466  0.76126
 H  -15.55835  -5.52458  0.30703
 C  -19.98481  -6.63411  -1.84807
 C  -20.47996  -8.03970  -1.03840
 C  -21.90863  -7.92876  -0.15512
 H  -22.52364  -7.01848  -0.51612
 H  -21.65356  -7.80393  0.96725
 H  -22.52575  -8.89718  -0.30438
 H  -19.63525  -8.35087  -0.31895
 H  -20.62563  -8.86100  -1.83557
 H  -20.94716  -6.07783  -2.17284
 H  -19.42106  -6.97241  -2.79994
 C  22.27581  5.20753  -1.53802
 C  21.38300  4.22174  -1.11494
 C  20.32441  4.70932  -0.28673
 C  20.38163  6.08707  -0.05467
 S  21.72013  6.62194  -0.87488
 H  21.59395  3.12472  -0.76110
 C  19.24332  3.62499  0.22829
 C  17.61300  3.83702  0.65710
 C  16.84984  5.30718  0.97391
 H  17.42163  6.17291  0.47891
 H  15.76965  5.27343  0.57205
 H  17.01147  3.38682  -0.22899
 H  17.44420  3.15347  1.57566
 H  19.70228  3.11693  1.18027
 H  19.18079  2.78696  -0.59226
 C  16.86133  5.42526  2.59903
 C  16.14975  6.76810  3.28766
 C  15.38819  7.84422  2.24860
 H  14.84644  7.25232  1.41343
 H  16.18157  8.54164  1.77473
 H  14.60713  8.48259  2.81049
 H  15.44141  6.38313  4.09949
 H  17.02366  7.28453  3.79680
 H  16.29919  4.50510  3.03553
 H  17.95763  5.37251  2.97228
 H  -15.96487  -0.85868  -2.85646
 H  -13.70850  -3.62577  0.08250
 H  23.12919  5.07907  -2.15352
 H  19.71009  6.66798  0.52427
*
