# ================================================================
# Orca input file made by Matty Jones
# ================================================================
! ZINDO/S 
! NOPOP
! NOMOPRINT
* xyz 0   1
 C  -20.42020  -7.80818  1.39263
 C  -19.16094  -7.67303  0.80621
 C  -18.08001  -8.09867  1.63969
 C  -18.48780  -8.57232  2.89056
 S  -20.14104  -8.44138  2.89936
 H  -18.80577  -6.69838  0.25331
 C  -16.56199  -8.00410  1.09076
 C  -16.14823  -6.50303  0.37992
 C  -14.61798  -6.21892  -0.31134
 H  -14.79202  -5.47492  -1.18259
 H  -14.26524  -7.22727  -0.75663
 H  -16.89241  -6.32000  -0.48064
 H  -16.29709  -5.70583  1.19921
 H  -15.80790  -8.17855  1.95955
 H  -16.38196  -8.81714  0.28118
 C  -13.44847  -5.62548  0.65005
 C  -11.97468  -5.19756  -0.07883
 C  -11.86244  -5.30724  -1.75439
 H  -12.04069  -6.40118  -2.08372
 H  -10.80382  -4.97123  -2.08355
 H  -12.65318  -4.61640  -2.23989
 H  -11.75077  -4.10360  0.21157
 H  -11.16011  -5.88224  0.36704
 H  -13.20059  -6.41219  1.46280
 H  -13.84586  -4.67152  1.17320
 C  13.57004  3.15611  1.29903
 C  13.66955  4.29096  0.49274
 C  13.17434  5.48564  1.10248
 C  12.68130  5.29316  2.39677
 S  12.88122  3.67769  2.71415
 H  13.86008  4.21150  -0.63112
 C  13.28470  6.83615  0.21891
 C  14.84513  6.87364  -0.52112
 C  15.38671  8.06240  -1.59820
 H  15.58140  9.02058  -0.98414
 H  14.53567  8.26377  -2.35312
 H  15.59139  6.86854  0.36073
 H  14.96138  5.89549  -1.11786
 H  12.49119  6.83927  -0.62341
 H  13.16105  7.78749  0.86708
 C  16.75160  7.65682  -2.40900
 C  18.22887  8.41057  -2.06826
 C  19.25338  7.69761  -0.94325
 H  18.69424  7.56867  0.06046
 H  20.17528  8.38257  -0.78908
 H  19.60236  6.66649  -1.33608
 H  18.81101  8.46831  -3.06575
 H  17.99634  9.48090  -1.70858
 H  16.55861  7.81510  -3.54141
 H  16.94355  6.52277  -2.24026
 H  -21.35743  -7.55864  0.96494
 H  -17.86966  -8.93840  3.66998
 H  13.87129  2.16891  1.05760
 H  12.26660  6.02629  3.04031
*
