# ================================================================
# Orca input file made by Matty Jones
# ================================================================
! ZINDO/S 
! NOPOP
! NOMOPRINT
* xyz 0   1
 C  -9.97193  10.15397  26.29852
 C  -8.74027  10.79331  26.44735
 C  -7.82491  10.10517  27.30342
 C  -8.33637  8.91646  27.83323
 S  -9.87259  8.78131  27.22319
 H  -8.52290  11.94560  26.59234
 C  -6.33689  10.65297  27.62733
 C  -6.14921  12.24034  28.21795
 C  -4.56454  12.81967  28.47496
 H  -4.66735  13.97703  28.38629
 H  -3.93993  12.46588  27.57237
 H  -6.64917  12.95321  27.46627
 H  -6.69722  12.29103  29.22937
 H  -5.80862  9.96056  28.39768
 H  -5.70641  10.61723  26.64354
 C  -3.76369  12.53965  29.86806
 C  -2.14293  13.05694  29.85248
 C  -1.81453  14.62800  30.35991
 H  -1.66322  15.30484  29.43287
 H  -0.84703  14.62774  30.99705
 H  -2.69534  15.02717  30.99332
 H  -1.54522  12.33694  30.52641
 H  -1.76489  12.96952  28.76620
 H  -3.75988  11.40532  30.08913
 H  -4.29296  13.08631  30.73778
 C  7.13130  -7.82671  -31.43317
 C  6.35048  -8.75574  -30.74388
 C  7.10431  -9.69191  -29.96955
 C  8.48735  -9.50113  -30.04779
 S  8.70171  -8.20247  -31.05673
 H  5.20871  -8.75794  -30.75752
 C  6.48328  -10.91142  -29.08321
 C  5.22619  -10.85185  -27.90984
 C  4.88922  -12.35100  -27.12249
 H  4.81393  -12.08045  -25.99745
 H  5.84942  -12.98305  -27.27907
 H  4.26435  -10.52078  -28.44190
 H  5.52082  -10.09120  -27.10415
 H  7.36785  -11.40161  -28.49198
 H  6.08526  -11.71626  -29.83710
 C  3.62077  -13.32519  -27.46862
 C  3.56630  -14.81806  -26.64515
 C  4.17532  -16.12474  -27.51953
 H  5.29832  -15.95596  -27.73503
 H  3.59444  -16.21107  -28.51782
 H  4.03519  -17.09684  -26.90756
 H  4.18919  -14.71684  -25.68089
 H  2.47046  -15.04326  -26.37379
 H  3.60926  -13.55691  -28.59918
 H  2.64365  -12.77078  -27.19045
 H  -10.79691  10.47769  25.71695
 H  -7.84505  8.24279  28.48774
 H  6.79192  -7.04560  -32.06427
 H  9.24098  -10.06790  -29.56361
*
