# ================================================================
# Orca input file made by Matty Jones
# ================================================================
! ZINDO/S 
! NOPOP
! NOMOPRINT
* xyz 0   1
 C  19.87618  -4.93912  2.06273
 C  21.13544  -4.80396  1.47631
 C  22.21637  -5.22960  2.30979
 C  21.80858  -5.70325  3.56066
 S  20.15534  -5.57232  3.56946
 H  21.49061  -3.82931  0.92341
 C  23.73439  -5.13503  1.76086
 C  24.14815  -3.63396  1.05002
 C  25.67840  -3.34986  0.35876
 H  25.50436  -2.60585  -0.51249
 H  26.03114  -4.35820  -0.08653
 H  23.40396  -3.45093  0.18946
 H  23.99929  -2.83677  1.86931
 H  24.48848  -5.30949  2.62965
 H  23.91442  -5.94807  0.95128
 C  26.84791  -2.75642  1.32015
 C  28.32170  -2.32850  0.59127
 C  28.43393  -2.43817  -1.08430
 H  28.25569  -3.53212  -1.41362
 H  29.49255  -2.10216  -1.41345
 H  27.64320  -1.74733  -1.56979
 H  28.54561  -1.23453  0.88167
 H  29.13627  -3.01317  1.03714
 H  27.09578  -3.54313  2.13290
 H  26.45052  -1.80246  1.84330
 C  -27.29290  0.24443  -2.71046
 C  -26.40709  1.22495  -2.26122
 C  -26.99332  2.17759  -1.37069
 C  -28.34887  1.94818  -1.11547
 S  -28.74519  0.59771  -1.99271
 H  -25.30605  1.26529  -2.54686
 C  -26.14646  3.41535  -0.75911
 C  -25.21571  4.32874  -1.82170
 C  -24.53333  5.59767  -0.93885
 H  -24.47973  5.29608  0.17352
 H  -25.27999  6.48444  -1.02294
 H  -24.39394  3.67479  -2.28768
 H  -25.89890  4.75761  -2.64209
 H  -26.72616  4.21716  -0.17224
 H  -25.39382  2.95055  0.00718
 C  -23.09233  6.08383  -1.49822
 C  -21.77698  5.32553  -0.74845
 C  -22.13492  4.29314  0.53567
 H  -22.61555  4.89926  1.39590
 H  -21.15422  3.80589  0.91306
 H  -22.86187  3.46745  0.17964
 H  -21.22826  4.70425  -1.54964
 H  -21.07509  6.14986  -0.35269
 H  -22.98199  7.22348  -1.33095
 H  -23.02044  5.86839  -2.63301
 H  18.93895  -4.68958  1.63504
 H  22.42672  -6.06934  4.34008
 H  -27.08174  -0.55709  -3.37119
 H  -28.98910  2.51811  -0.49186
*
