# ================================================================
# Orca input file made by Matty Jones
# ================================================================
! ZINDO/S 
! NOPOP
! NOMOPRINT
* xyz 0   1
 C  16.57106  -0.20267  -15.25959
 C  17.75253  0.46685  -14.93745
 C  18.58108  -0.22817  -14.00220
 C  18.05119  -1.45267  -13.58372
 S  16.60574  -1.60878  -14.38168
 H  18.04352  1.48536  -15.36524
 C  20.05347  0.12234  -13.32238
 C  21.02583  1.39627  -12.56478
 C  22.26993  2.42977  -13.14741
 H  21.85607  2.94877  -14.09010
 H  23.14217  1.73195  -13.45218
 H  21.52293  0.85905  -11.67165
 H  20.21992  2.12295  -12.17253
 H  20.11145  -0.58593  -12.40049
 H  20.83587  -0.24610  -14.11702
 C  22.87284  3.57639  -12.12953
 C  23.92121  3.28688  -10.80288
 C  25.60510  3.29275  -10.94120
 H  25.90550  3.36868  -12.05374
 H  26.02309  2.31073  -10.49026
 H  26.03963  4.19327  -10.35671
 H  23.67244  4.11982  -10.03825
 H  23.61674  2.26811  -10.35723
 H  21.96858  4.14315  -11.67999
 H  23.46987  4.31814  -12.79489
 C  -23.19440  -4.98492  10.38152
 C  -22.59673  -4.29006  11.43407
 C  -23.43339  -3.29233  12.02466
 C  -24.69809  -3.19888  11.43548
 S  -24.71434  -4.33959  10.23177
 H  -21.53243  -4.47875  11.78962
 C  -23.00967  -2.32664  13.25129
 C  -21.68482  -1.31354  12.96345
 C  -21.27552  -0.21613  14.19032
 H  -22.24114  0.32743  14.51825
 H  -20.85923  -0.81577  15.08473
 H  -20.76559  -1.97765  12.76783
 H  -21.92998  -0.69984  12.01889
 H  -23.89139  -1.67167  13.62669
 H  -22.68794  -3.00177  14.15998
 C  -20.17605  0.87532  13.68076
 C  -18.57213  0.43134  13.94712
 C  -17.96397  -0.58953  12.75766
 H  -18.73159  -0.69666  11.89867
 H  -17.76109  -1.62975  13.22482
 H  -16.97641  -0.15308  12.34178
 H  -17.93479  1.39272  13.95548
 H  -18.49260  -0.08995  14.97030
 H  -20.35209  1.87766  14.23376
 H  -20.30803  1.06198  12.54632
 H  15.81169  0.11979  -15.92516
 H  18.48296  -2.13770  -12.89968
 H  -22.76678  -5.76148  9.80040
 H  -25.48223  -2.53743  11.70235
*
