# ================================================================
# Orca input file made by Matty Jones
# ================================================================
! ZINDO/S 
! NOPOP
! NOMOPRINT
* xyz 0   1
 C  -14.72450  15.57111  26.11401
 C  -14.16988  14.70451  25.17099
 C  -13.02583  13.98635  25.63969
 C  -12.67531  14.28739  26.95947
 S  -13.78374  15.41049  27.46985
 H  -14.46365  14.86509  24.08090
 C  -12.41873  12.98127  24.51674
 C  -13.62312  12.69923  23.26389
 C  -15.00007  11.69577  23.35675
 H  -14.63703  10.62094  23.13172
 H  -15.33380  11.74398  24.46609
 H  -12.95689  12.09254  22.51009
 H  -13.89183  13.65856  22.69453
 H  -12.15661  11.95544  24.97754
 H  -11.48985  13.44202  24.00790
 C  -16.33616  11.97908  22.43404
 C  -16.57293  13.36836  21.47728
 C  -18.05283  13.40628  20.65231
 H  -18.82775  12.75765  21.21489
 H  -17.90384  12.99263  19.58207
 H  -18.43113  14.49857  20.59534
 H  -15.72809  13.41838  20.69887
 H  -16.52854  14.28834  22.16687
 H  -16.43669  11.09023  21.69531
 H  -17.25224  11.95533  23.14704
 C  11.09086  -14.33009  -23.43820
 C  12.47405  -14.14411  -23.42809
 C  13.14474  -14.80911  -22.35468
 C  12.28683  -15.52379  -21.51294
 S  10.76500  -15.29848  -22.13239
 H  13.03188  -13.64185  -24.28663
 C  14.74804  -14.64091  -22.26475
 C  15.20423  -13.00647  -22.45431
 C  16.82266  -12.53526  -22.46649
 H  16.87553  -11.50935  -21.93034
 H  17.40309  -13.30767  -21.82807
 H  14.74530  -12.62686  -23.43997
 H  14.70545  -12.44326  -21.57563
 H  15.14807  -14.96240  -21.22256
 H  15.27406  -15.26836  -23.08232
 C  17.55296  -12.39800  -23.92085
 C  16.71909  -12.77736  -25.34705
 C  15.90482  -11.50289  -26.08972
 H  16.45361  -11.21809  -27.06870
 H  15.87744  -10.58876  -25.38144
 H  14.82340  -11.83405  -26.33730
 H  17.50002  -13.17180  -26.10142
 H  15.96190  -13.61450  -25.12037
 H  17.90259  -11.29850  -24.04137
 H  18.49555  -13.07332  -23.91326
 H  -15.56906  16.19947  25.98966
 H  -11.86979  13.88254  27.51699
 H  10.39533  -13.93546  -24.13398
 H  12.55336  -16.09085  -20.65795
*
