# ================================================================
# Orca input file made by Matty Jones
# ================================================================
! ZINDO/S 
! NOPOP
! NOMOPRINT
* xyz 0   1
 C  -26.49669  5.36199  -1.90771
 C  -25.27268  5.99968  -1.70025
 C  -24.36567  5.26728  -0.87249
 C  -24.87605  4.04509  -0.42407
 S  -26.40123  3.93650  -1.06631
 H  -24.59247  6.57277  -2.49774
 C  -22.90124  5.86738  -0.53183
 C  -22.75476  7.42224  0.17399
 C  -21.21678  8.15184  0.38762
 H  -21.50164  9.27687  0.54713
 H  -20.69322  8.07208  -0.64042
 H  -23.36890  8.13512  -0.48869
 H  -23.22960  7.34856  1.22001
 H  -22.34410  5.14327  0.18439
 H  -22.28106  5.92143  -1.51974
 C  -20.13257  7.83366  1.56600
 C  -18.53685  8.25045  1.11628
 C  -17.88282  9.75698  1.48193
 H  -17.88384  9.90312  2.62897
 H  -18.50420  10.58754  0.97285
 H  -16.79170  9.79239  1.09144
 H  -17.84044  7.47278  1.60847
 H  -18.48025  8.15349  -0.03279
 H  -20.14600  6.70762  1.81716
 H  -20.38680  8.43459  2.51942
 C  26.59888  -5.96388  -1.79074
 C  25.52137  -6.76457  -1.40894
 C  24.46992  -6.05352  -0.75083
 C  24.71842  -4.68444  -0.61225
 S  26.20509  -4.42935  -1.30159
 H  25.48045  -7.88493  -1.62889
 C  23.25212  -7.04809  -0.33847
 C  21.60292  -6.87349  -0.68313
 C  20.50893  -6.14827  0.36123
 H  21.05634  -5.32200  0.95176
 H  19.66285  -5.67268  -0.26457
 H  21.55873  -6.26658  -1.67072
 H  21.20559  -7.93704  -0.89899
 H  23.27120  -7.12511  0.83880
 H  23.49622  -8.12259  -0.73161
 C  19.88205  -7.24684  1.39924
 C  18.55619  -8.17755  0.89376
 C  18.90479  -9.71890  0.30704
 H  17.91591  -10.31191  0.19475
 H  19.59658  -10.26585  1.05638
 H  19.42701  -9.63686  -0.72065
 H  18.01776  -7.59811  0.05551
 H  17.84728  -8.29663  1.79487
 H  20.71620  -7.99510  1.69409
 H  19.54238  -6.68852  2.35547
 H  -27.31483  5.71464  -2.48207
 H  -24.38991  3.33640  0.19643
 H  27.48263  -6.27185  -2.28846
 H  24.08849  -3.96110  -0.16107
*
