# ================================================================
# Orca input file made by Matty Jones
# ================================================================
! ZINDO/S 
! NOPOP
! NOMOPRINT
* xyz 0   1
 C  -9.09449  15.13888  30.58046
 C  -8.53987  14.27228  29.63744
 C  -7.39583  13.55412  30.10613
 C  -7.04530  13.85517  31.42591
 S  -8.15373  14.97826  31.93629
 H  -8.83364  14.43286  28.54735
 C  -6.78873  12.54904  28.98318
 C  -7.99311  12.26700  27.73034
 C  -9.37006  11.26354  27.82319
 H  -9.00702  10.18871  27.59817
 H  -9.70380  11.31175  28.93254
 H  -7.32688  11.66031  26.97653
 H  -8.26182  13.22634  27.16097
 H  -6.52660  11.52322  29.44399
 H  -5.85984  13.00979  28.47435
 C  -10.70615  11.54685  26.90049
 C  -10.94293  12.93613  25.94372
 C  -12.42283  12.97405  25.11876
 H  -13.19775  12.32542  25.68134
 H  -12.27383  12.56040  24.04851
 H  -12.80112  14.06634  25.06178
 H  -10.09809  12.98615  25.16532
 H  -10.89854  13.85612  26.63332
 H  -10.80669  10.65800  26.16176
 H  -11.62223  11.52310  27.61349
 C  11.90835  -9.63509  -29.05534
 C  11.34751  -10.82258  -28.58288
 C  11.88267  -11.26415  -27.33272
 C  12.87107  -10.42108  -26.81542
 S  13.02862  -9.19099  -27.91654
 H  10.51943  -11.38917  -29.12875
 C  11.36904  -12.63456  -26.64862
 C  9.71549  -13.06388  -26.58443
 C  9.22547  -14.01630  -27.89500
 H  9.41002  -13.40052  -28.85575
 H  9.92466  -14.94033  -27.91422
 H  9.53386  -13.65995  -25.61753
 H  9.09049  -12.10007  -26.57682
 H  11.62698  -12.64562  -25.51654
 H  11.90923  -13.53042  -27.14946
 C  7.68082  -14.53581  -27.87163
 C  6.83761  -14.19052  -29.29364
 C  5.24642  -14.73532  -29.29297
 H  5.17834  -15.73186  -28.70914
 H  4.89955  -14.90072  -30.38511
 H  4.57203  -13.94168  -28.78839
 H  7.39140  -14.70037  -30.16671
 H  6.83544  -13.04959  -29.44958
 H  7.65664  -15.68141  -27.71608
 H  7.11258  -14.03190  -26.99947
 H  -9.93906  15.76724  30.45611
 H  -6.23978  13.45031  31.98343
 H  11.66865  -9.12474  -29.95294
 H  13.40735  -10.54274  -25.90922
*
