# ================================================================
# Orca input file made by Matty Jones
# ================================================================
! ZINDO/S 
! NOPOP
! NOMOPRINT
* xyz 0   1
 C  25.35075  0.57078  -11.75529
 C  24.66652  -0.64183  -11.85180
 C  25.24532  -1.70137  -11.08588
 C  26.39237  -1.32350  -10.38104
 S  26.62677  0.27912  -10.73755
 H  23.59271  -0.66346  -12.23132
 C  24.56746  -3.13485  -11.12280
 C  22.88504  -3.07307  -10.91356
 C  22.22324  -2.88204  -12.45009
 H  21.25655  -2.26109  -12.35474
 H  22.97398  -2.32692  -13.12931
 H  22.51368  -4.04164  -10.42529
 H  22.60858  -2.16671  -10.26011
 H  24.91662  -3.85137  -10.29416
 H  24.79923  -3.65054  -12.14982
 C  21.93712  -4.31339  -13.16539
 C  21.48389  -4.21670  -14.78857
 C  21.43468  -2.67286  -15.45883
 H  21.15237  -2.75943  -16.57863
 H  22.47276  -2.17115  -15.36469
 H  20.64075  -2.03787  -14.90694
 H  22.23964  -4.83935  -15.39814
 H  20.43353  -4.68068  -14.88971
 H  22.88709  -4.97165  -13.10508
 H  21.08129  -4.84943  -12.59805
 C  -18.45845  2.25333  12.86584
 C  -19.58664  1.53640  13.26722
 C  -20.66542  2.35459  13.72663
 C  -20.38767  3.72450  13.68782
 S  -18.84368  3.84957  13.09546
 H  -20.06854  0.52377  12.88993
 C  -22.11993  1.87179  14.23976
 C  -23.14315  1.28427  13.02250
 C  -23.90781  2.62925  12.27978
 H  -23.15960  3.50954  12.40219
 H  -23.94269  2.35939  11.15156
 H  -22.53594  0.71321  12.23717
 H  -23.95048  0.61474  13.48651
 H  -22.69542  2.66225  14.84442
 H  -21.96527  0.96216  14.96477
 C  -25.37923  3.19613  12.69705
 C  -26.61855  2.58896  11.71504
 C  -26.83466  3.46347  10.28896
 H  -27.05352  4.57045  10.54140
 H  -27.72289  3.01369  9.69900
 H  -25.87144  3.39208  9.65123
 H  -27.60309  2.62964  12.31139
 H  -26.37215  1.49819  11.44414
 H  -25.61723  2.90144  13.78861
 H  -25.39518  4.34915  12.61192
 H  25.10620  1.48536  -12.23211
 H  26.98748  -1.93363  -9.75081
 H  -17.54743  1.86024  12.49284
 H  -21.02957  4.51709  13.97656
*
