# ================================================================
# Orca input file made by Matty Jones
# ================================================================
! ZINDO/S 
! NOPOP
! NOMOPRINT
* xyz 0   1
 C  -2.43978  1.99345  -1.35457
 C  -1.18052  2.12861  -1.94099
 C  -0.09959  1.70297  -1.10751
 C  -0.50738  1.22932  0.14336
 S  -2.16062  1.36025  0.15216
 H  -0.82535  3.10326  -2.49389
 C  1.41843  1.79754  -1.65644
 C  1.83219  3.29861  -2.36728
 C  3.36244  3.58271  -3.05854
 H  3.18840  4.32672  -3.92979
 H  3.71517  2.57436  -3.50383
 H  1.08800  3.48164  -3.22784
 H  1.68333  4.09580  -1.54799
 H  2.17252  1.62308  -0.78766
 H  1.59846  0.98449  -2.46602
 C  4.53195  4.17615  -2.09715
 C  6.00574  4.60407  -2.82603
 C  6.11797  4.49440  -4.50160
 H  5.93973  3.40045  -4.83093
 H  7.17659  4.83041  -4.83075
 H  5.32723  5.18524  -4.98709
 H  6.22965  5.69804  -2.53563
 H  6.82030  3.91940  -2.38016
 H  4.77982  3.38944  -1.28440
 H  4.13456  5.13011  -1.57400
 C  0.07390  0.27863  1.39338
 C  -0.74905  -0.59880  2.10103
 C  -0.08094  -1.31292  3.14406
 C  1.27642  -0.99779  3.26061
 S  1.57431  0.13193  2.08356
 H  -1.86742  -0.71899  1.91139
 C  -0.82608  -2.37585  4.09971
 C  -2.04155  -3.49484  3.67886
 C  -2.80693  -3.66460  2.17893
 H  -2.88561  -2.64336  1.65786
 H  -2.20313  -4.39350  1.52159
 H  -1.58381  -4.53960  3.89302
 H  -2.88019  -3.30513  4.45354
 H  -1.25570  -1.79176  5.02078
 H  -0.02497  -3.12126  4.49308
 C  -4.29748  -4.26088  2.49434
 C  -5.40518  -4.43553  1.23956
 C  -5.47653  -5.97961  0.58677
 H  -6.47701  -6.10122  0.01624
 H  -5.42260  -6.76189  1.43783
 H  -4.59159  -6.13287  -0.14141
 H  -5.12133  -3.69786  0.40017
 H  -6.45092  -4.16719  1.64593
 H  -4.17061  -5.30619  2.97937
 H  -4.80801  -3.56513  3.27088
 H  -3.37702  2.24299  -1.78226
 H  1.96980  -1.39731  3.95574
*
