# ================================================================
# Orca input file made by Matty Jones
# ================================================================
! ZINDO/S 
! NOPOP
! NOMOPRINT
* xyz 0   1
 C  23.00625  3.84370  -2.26131
 C  22.60378  2.51530  -2.11544
 C  23.31359  1.79804  -1.10254
 C  24.28144  2.56394  -0.44527
 S  24.20903  4.06711  -1.14216
 H  21.79219  2.02633  -2.75537
 C  23.09623  0.25113  -0.66420
 C  21.61863  -0.45927  -0.23110
 C  20.68722  -1.13994  -1.44892
 H  20.38407  -0.29941  -2.18288
 H  21.34102  -1.91041  -2.00958
 H  21.84892  -1.29433  0.53224
 H  20.98852  0.35883  0.28487
 H  23.47104  -0.41038  -1.55562
 H  23.77608  -0.00813  0.23941
 C  19.35310  -1.87585  -0.87206
 C  18.40625  -2.50803  -2.11635
 C  17.39403  -1.33264  -2.76715
 H  16.38702  -1.81563  -3.06848
 H  17.90213  -0.87548  -3.70180
 H  17.20583  -0.49972  -1.98601
 H  19.09158  -2.91958  -2.94386
 H  17.75810  -3.35862  -1.68854
 H  19.66188  -2.75507  -0.18534
 H  18.71805  -1.13224  -0.25863
 C  -15.87948  0.33230  -0.40861
 C  -17.15647  -0.19363  -0.20717
 C  -17.99842  0.61680  0.61660
 C  -17.38315  1.78858  1.06790
 S  -15.85135  1.76065  0.43289
 H  -17.51604  -1.17449  -0.67022
 C  -19.48012  0.04148  0.91712
 C  -20.89676  0.98422  0.94779
 C  -22.26208  -0.00676  1.17690
 H  -23.14843  0.53136  0.66240
 H  -22.06356  -0.99951  0.61607
 H  -20.99922  1.54521  -0.04763
 H  -20.88973  1.70916  1.82622
 H  -19.46956  -0.48956  1.96233
 H  -19.71380  -0.77739  0.11856
 C  -22.67061  -0.33238  2.71699
 C  -24.00286  -1.37039  2.83957
 C  -25.48755  -0.58163  2.87131
 H  -26.29392  -1.30602  3.27713
 H  -25.76790  -0.25112  1.79827
 H  -25.41669  0.34577  3.55928
 H  -23.89455  -1.97860  3.81243
 H  -23.99190  -2.08535  1.93605
 H  -21.78209  -0.84105  3.25483
 H  -22.92933  0.64826  3.27061
 H  22.62366  4.55895  -2.94369
 H  24.92637  2.24958  0.33502
 H  -15.09336  -0.09195  -0.97925
 H  -17.80705  2.53783  1.68639
*
