# ================================================================
# Orca input file made by Matty Jones
# ================================================================
! ZINDO/S 
! NOPOP
! NOMOPRINT
* xyz 0   1
 C  -19.27773  -2.65798  24.99692
 C  -18.11968  -2.00542  25.42235
 C  -17.30019  -2.78257  26.29914
 C  -17.81375  -4.05521  26.56740
 S  -19.23473  -4.15059  25.71760
 H  -17.83380  -0.94347  25.11657
 C  -15.86094  -2.45051  27.04443
 C  -14.99114  -1.22929  27.97494
 C  -13.87193  0.00583  27.55617
 H  -14.42835  1.01337  27.59632
 H  -13.52490  -0.20255  26.47590
 H  -14.40569  -1.87664  28.73369
 H  -15.83801  -0.67500  28.52568
 H  -15.71120  -3.29424  27.82463
 H  -15.07410  -2.61096  26.19887
 C  -12.54628  0.07339  28.53386
 C  -12.34234  1.27822  29.72349
 C  -11.36880  2.57541  29.25274
 H  -11.99831  3.54569  29.23707
 H  -10.93669  2.37702  28.19807
 H  -10.49808  2.69171  30.00804
 H  -13.38158  1.69037  29.99579
 H  -11.86301  0.79237  30.65122
 H  -11.60925  0.13826  27.85548
 H  -12.48094  -0.92362  29.12337
 C  19.13128  1.04888  -28.97177
 C  17.81699  1.34872  -28.61033
 C  17.64482  1.63627  -27.22039
 C  18.82914  1.56310  -26.48055
 S  20.01035  1.15228  -27.56975
 H  16.95168  1.39675  -29.35431
 C  16.30182  2.02879  -26.38247
 C  14.76490  1.29862  -26.05712
 C  13.19357  1.18624  -26.72654
 H  12.44639  1.40282  -25.86839
 H  13.09969  2.02502  -27.51469
 H  15.06934  0.18953  -25.90858
 H  14.52847  1.74528  -25.00653
 H  16.66140  2.26845  -25.28986
 H  15.94954  3.05436  -26.83584
 C  12.83809  -0.25394  -27.39420
 C  12.45794  -0.32869  -29.03363
 C  10.81016  -0.54168  -29.31607
 H  10.22548  0.38373  -28.94494
 H  10.44873  -1.48441  -28.74846
 H  10.63649  -0.68747  -30.45087
 H  12.77953  0.66103  -29.52921
 H  13.03293  -1.20520  -29.50858
 H  13.72989  -0.97755  -27.23722
 H  11.92551  -0.69335  -26.82384
 H  -20.02679  -2.27923  24.34958
 H  -17.38466  -4.80252  27.18467
 H  19.49151  0.80622  -29.93869
 H  18.94721  1.73436  -25.44116
*
