# ================================================================
# Orca input file made by Matty Jones
# ================================================================
! ZINDO/S 
! NOPOP
! NOMOPRINT
* xyz 0   1
 C  -17.48949  -4.18049  -1.52620
 C  -18.21929  -5.31226  -1.15959
 C  -17.58341  -6.12055  -0.16632
 C  -16.34525  -5.62453  0.25350
 S  -16.10579  -4.23159  -0.61414
 H  -19.14562  -5.67826  -1.72109
 C  -18.23647  -7.48240  0.42139
 C  -19.22485  -8.58174  -0.45641
 C  -20.89050  -8.30625  -0.16727
 H  -21.06370  -8.64927  0.92742
 H  -21.05537  -7.16281  -0.22104
 H  -18.96219  -9.66027  -0.17244
 H  -19.03883  -8.40532  -1.57752
 H  -18.86247  -7.20407  1.36087
 H  -17.35742  -8.17029  0.77875
 C  -22.00794  -9.05743  -1.09703
 C  -22.70847  -10.59756  -0.87368
 C  -22.39783  -11.54850  0.47596
 H  -22.80229  -11.01816  1.42105
 H  -21.25986  -11.72553  0.57709
 H  -22.93757  -12.56665  0.34735
 H  -22.37555  -11.22332  -1.78932
 H  -23.85345  -10.45142  -0.92413
 H  -22.93228  -8.34566  -1.10414
 H  -21.58031  -9.08121  -2.17578
 C  17.97989  4.65432  2.14220
 C  18.07940  5.78917  1.33591
 C  17.58419  6.98384  1.94565
 C  17.09115  6.79136  3.23994
 S  17.29107  5.17590  3.55732
 H  18.26993  5.70970  0.21205
 C  17.69455  8.33435  1.06208
 C  19.25498  8.37185  0.32205
 C  19.79656  9.56060  -0.75503
 H  19.99125  10.51878  -0.14097
 H  18.94552  9.76197  -1.50995
 H  20.00124  8.36675  1.20390
 H  19.37123  7.39370  -0.27469
 H  16.90104  8.33748  0.21976
 H  17.57090  9.28570  1.71025
 C  21.16145  9.15503  -1.56583
 C  22.63872  9.90878  -1.22509
 C  23.66323  9.19581  -0.10008
 H  23.10409  9.06688  0.90363
 H  24.58513  9.88077  0.05409
 H  24.01221  8.16469  -0.49291
 H  23.22086  9.96651  -2.22258
 H  22.40619  10.97911  -0.86541
 H  20.96846  9.31331  -2.69824
 H  21.35340  8.02098  -1.39709
 H  -17.76230  -3.44364  -2.23769
 H  -15.69571  -6.04980  0.97520
 H  18.28114  3.66712  1.90077
 H  16.67645  7.52449  3.88348
*
