# ================================================================
# Orca input file made by Matty Jones
# ================================================================
! ZINDO/S 
! NOPOP
! NOMOPRINT
* xyz 0   1
 C  17.29182  5.97378  -6.10280
 C  18.58315  6.42569  -6.37876
 C  19.61750  5.62956  -5.79520
 C  19.14053  4.54352  -5.05470
 S  17.48737  4.62432  -5.15949
 H  18.98343  7.51980  -6.46635
 C  21.21958  5.80831  -5.87123
 C  22.06947  7.13808  -5.19457
 C  22.48465  6.72455  -3.58136
 H  21.48366  6.66794  -3.00344
 H  22.94619  5.66245  -3.61522
 H  23.03875  7.30512  -5.78332
 H  21.41887  8.07952  -5.19663
 H  21.74421  4.86950  -5.41676
 H  21.51212  5.85055  -7.00488
 C  23.50895  7.69119  -2.76097
 C  22.80349  8.97041  -1.91886
 C  22.67067  10.35146  -2.86585
 H  22.50806  11.27136  -2.18278
 H  21.77076  10.23479  -3.58393
 H  23.64091  10.49282  -3.48050
 H  21.75308  8.65507  -1.56851
 H  23.45995  9.21400  -1.00371
 H  24.07564  7.05183  -1.97615
 H  24.28711  8.13209  -3.49496
 C  -16.24051  -6.90742  2.41987
 C  -17.51750  -7.43335  2.62131
 C  -18.35945  -6.62292  3.44508
 C  -17.74418  -5.45114  3.89639
 S  -16.21238  -5.47907  3.26138
 H  -17.87707  -8.41421  2.15826
 C  -19.84115  -7.19824  3.74560
 C  -21.25779  -6.25549  3.77628
 C  -22.62310  -7.24648  4.00538
 H  -23.50946  -6.70836  3.49089
 H  -22.42459  -8.23923  3.44456
 H  -21.36025  -5.69451  2.78086
 H  -21.25076  -5.53056  4.65471
 H  -19.83059  -7.72928  4.79081
 H  -20.07483  -8.01711  2.94704
 C  -23.03164  -7.57210  5.54547
 C  -24.36389  -8.61011  5.66806
 C  -25.84858  -7.82134  5.69980
 H  -26.65495  -8.54574  6.10562
 H  -26.12893  -7.49084  4.62675
 H  -25.77772  -6.89395  6.38777
 H  -24.25558  -9.21832  6.64091
 H  -24.35293  -9.32507  4.76454
 H  -22.14312  -8.08077  6.08332
 H  -23.29036  -6.59146  6.09910
 H  16.37862  6.40282  -6.42775
 H  19.71525  3.82008  -4.53516
 H  -15.45439  -7.33167  1.84923
 H  -18.16808  -4.70189  4.51488
*
