# ================================================================
# Orca input file made by Matty Jones
# ================================================================
! ZINDO/S 
! NOPOP
! NOMOPRINT
* xyz 0   1
 C  8.92235  13.64756  -5.02180
 C  9.28370  12.47786  -5.69197
 C  10.58639  11.99232  -5.35805
 C  11.25707  12.78261  -4.41946
 S  10.21761  14.02307  -4.05723
 H  8.46335  11.71084  -5.96183
 C  10.96107  10.64956  -6.17573
 C  10.39388  10.67612  -7.84036
 C  9.47686  11.96615  -8.54200
 H  8.54723  12.14804  -7.88449
 H  10.16904  12.88947  -8.49620
 H  11.34086  10.58565  -8.48576
 H  9.74367  9.73575  -7.95585
 H  10.46336  9.72678  -5.68027
 H  12.10641  10.49564  -6.21171
 C  8.79606  11.89774  -10.03382
 C  7.15113  11.45023  -10.03803
 C  6.02311  12.70448  -9.94038
 H  6.44111  13.55078  -9.27270
 H  5.04087  12.29700  -9.48227
 H  5.81235  13.11239  -11.00243
 H  6.97374  10.74750  -9.14272
 H  6.95047  10.88075  -11.01992
 H  8.86463  12.93787  -10.53180
 H  9.36379  11.13135  -10.68176
 C  -10.20987  -14.23781  3.94149
 C  -9.61818  -13.87058  5.15101
 C  -10.39791  -12.95942  5.92953
 C  -11.61142  -12.60539  5.33172
 S  -11.65516  -13.42679  3.89164
 H  -8.82216  -14.48620  5.66835
 C  -9.71305  -12.52552  7.31731
 C  -8.10577  -12.05643  6.99388
 C  -7.05097  -11.74272  8.25979
 H  -5.98626  -11.71044  7.79349
 H  -7.09636  -12.66430  8.96231
 H  -7.59193  -12.86924  6.35947
 H  -8.18486  -11.08888  6.36444
 H  -10.27111  -11.62310  7.78411
 H  -9.70842  -13.40443  8.07009
 C  -7.26972  -10.38408  9.11153
 C  -8.11317  -10.70467  10.54297
 C  -9.78525  -10.66044  10.40235
 H  -10.09078  -9.87115  9.61345
 H  -10.24141  -10.37987  11.42894
 H  -10.17218  -11.70313  10.08341
 H  -7.81173  -11.75148  10.92181
 H  -7.79511  -9.91447  11.32010
 H  -7.87136  -9.61277  8.49733
 H  -6.24777  -9.92385  9.39406
 H  8.01184  14.18296  -5.11072
 H  12.22682  12.62239  -4.02258
 H  -9.81792  -14.89635  3.20917
 H  -12.34895  -11.94936  5.71809
*
