# ================================================================
# Orca input file made by Matty Jones
# ================================================================
! ZINDO/S 
! NOPOP
! NOMOPRINT
* xyz 0   1
 C  11.27316  10.49999  -5.34705
 C  11.82777  9.63339  -6.29007
 C  12.97182  8.91524  -5.82138
 C  13.32234  9.21628  -4.50160
 S  12.21392  10.33937  -3.99122
 H  11.53401  9.79398  -7.38017
 C  13.57892  7.91015  -6.94433
 C  12.37454  7.62811  -8.19718
 C  10.99758  6.62465  -8.10432
 H  11.36062  5.54983  -8.32935
 H  10.66385  6.67287  -6.99498
 H  13.04076  7.02143  -8.95098
 H  12.10582  8.58745  -8.76654
 H  13.84105  6.88433  -6.48353
 H  14.50781  8.37091  -7.45316
 C  9.66150  6.90797  -9.02702
 C  9.42472  8.29724  -9.98379
 C  7.94482  8.33516  -10.80876
 H  7.16990  7.68653  -10.24617
 H  8.09381  7.92151  -11.87900
 H  7.56653  9.42746  -10.86573
 H  10.26956  8.34726  -10.76220
 H  9.46911  9.21723  -9.29419
 H  9.56096  6.01912  -9.76576
 H  8.74541  6.88422  -8.31403
 C  -13.09918  -12.76728  7.84369
 C  -12.25810  -11.67250  8.04851
 C  -12.88303  -10.57276  8.71505
 C  -14.22435  -10.80029  9.03819
 S  -14.56175  -12.32868  8.48990
 H  -11.16631  -11.62284  7.72133
 C  -11.87829  -9.31781  8.93892
 C  -12.12416  -7.74953  8.35421
 C  -10.74579  -6.80929  8.72620
 H  -11.06692  -5.70019  8.68135
 H  -10.42918  -7.06286  9.80627
 H  -12.25967  -7.78412  7.21525
 H  -13.04285  -7.28606  8.85992
 H  -11.77603  -9.17437  10.09753
 H  -10.81055  -9.60968  8.55823
 C  -9.47528  -7.04003  7.71858
 C  -9.25072  -6.04550  6.36573
 C  -8.21719  -4.73888  6.61453
 H  -8.74586  -3.95324  7.27800
 H  -7.94719  -4.26741  5.59170
 H  -7.25144  -5.10483  7.13648
 H  -8.80714  -6.69104  5.51984
 H  -10.27825  -5.63815  6.04280
 H  -8.50359  -6.95181  8.34643
 H  -9.53263  -8.12165  7.30488
 H  10.42859  11.12836  -5.47141
 H  14.12786  8.81142  -3.94408
 H  -12.85452  -13.68552  7.37404
 H  -14.88679  -10.13516  9.53050
*
