# ================================================================
# Orca input file made by Matty Jones
# ================================================================
! ZINDO/S 
! NOPOP
! NOMOPRINT
* xyz 0   1
 C  -16.11661  -8.60584  -9.60617
 C  -16.52228  -9.94064  -9.56574
 C  -15.83310  -10.73114  -8.59393
 C  -14.87842  -10.01693  -7.86330
 S  -14.93645  -8.46678  -8.44990
 H  -17.34935  -10.37342  -10.22072
 C  -16.03376  -12.30132  -8.26513
 C  -17.49547  -13.02743  -7.80732
 C  -18.54422  -13.65179  -8.95794
 H  -18.92145  -12.77822  -9.61349
 H  -17.95364  -14.39296  -9.61949
 H  -17.22271  -13.89331  -7.09244
 H  -18.08299  -12.22769  -7.21214
 H  -15.27521  -12.64708  -7.44833
 H  -15.73502  -12.89302  -9.23919
 C  -19.81185  -14.41340  -8.27049
 C  -20.84721  -15.10427  -9.40862
 C  -21.96256  -13.99284  -9.99619
 H  -22.94815  -14.53950  -10.25873
 H  -21.53003  -13.49257  -10.94663
 H  -22.16992  -13.18395  -9.19487
 H  -20.22266  -15.51261  -10.28517
 H  -21.41870  -15.96832  -8.90425
 H  -19.42531  -15.26477  -7.58840
 H  -20.41627  -13.66922  -7.62582
 C  16.00044  8.48026  7.19852
 C  16.76729  9.41314  7.89822
 C  15.99805  10.39918  8.59123
 C  14.61683  10.24413  8.43797
 S  14.42275  8.91390  7.46676
 H  17.90518  9.37057  7.96735
 C  16.69027  11.56480  9.47697
 C  18.08152  12.38950  8.98246
 C  18.57364  13.60736  10.06521
 H  18.26488  13.27854  11.13019
 H  17.99913  14.57223  9.79236
 H  18.93591  11.62216  8.89984
 H  17.88129  12.87241  7.95962
 H  15.91503  12.42708  9.62998
 H  16.97123  11.12889  10.51744
 C  20.17683  13.89363  10.03361
 C  20.75812  14.57312  8.60158
 C  20.76577  16.24865  8.50632
 H  21.58274  16.67172  9.20788
 H  19.72967  16.65711  8.81917
 H  20.99286  16.56207  7.41469
 H  21.84591  14.20991  8.46529
 H  20.11465  14.16971  7.73328
 H  20.74896  12.90445  10.21386
 H  20.44295  14.62894  10.88869
 H  -16.48527  -7.84204  -10.24202
 H  -14.24935  -10.38851  -7.09532
 H  16.35244  7.66618  6.61803
 H  13.85362  10.84997  8.85520
*
