# ================================================================
# Orca input file made by Matty Jones
# ================================================================
! ZINDO/S 
! NOPOP
! NOMOPRINT
* xyz 0   1
 C  12.94549  7.92878  -8.41777
 C  13.30683  6.75909  -9.08794
 C  14.60953  6.27355  -8.75401
 C  15.28021  7.06384  -7.81542
 S  14.24074  8.30430  -7.45320
 H  12.48649  5.99206  -9.35779
 C  14.98421  4.93078  -9.57169
 C  14.41701  4.95735  -11.23632
 C  13.49999  6.24737  -11.93796
 H  12.57037  6.42926  -11.28045
 H  14.19218  7.17069  -11.89216
 H  15.36399  4.86688  -11.88172
 H  13.76681  4.01698  -11.35181
 H  14.48650  4.00801  -9.07624
 H  16.12955  4.77687  -9.60768
 C  12.81920  6.17897  -13.42979
 C  11.17427  5.73145  -13.43399
 C  10.04624  6.98570  -13.33634
 H  10.46425  7.83201  -12.66866
 H  9.06400  6.57823  -12.87823
 H  9.83549  7.39361  -14.39839
 H  10.99688  5.02873  -12.53869
 H  10.97361  5.16197  -14.41588
 H  12.88776  7.21910  -13.92777
 H  13.38692  5.41257  -14.07772
 C  -15.55362  -9.77699  9.51791
 C  -14.66781  -8.79648  9.96715
 C  -15.25404  -7.84384  10.85767
 C  -16.60960  -8.07325  11.11290
 S  -17.00591  -9.42372  10.23566
 H  -13.56677  -8.75614  9.68150
 C  -14.40718  -6.60608  11.46925
 C  -13.47644  -5.69269  10.40666
 C  -12.79405  -4.42376  11.28952
 H  -12.74045  -4.72535  12.40189
 H  -13.54072  -3.53699  11.20542
 H  -12.65467  -6.34664  9.94069
 H  -14.15962  -5.26382  9.58628
 H  -14.98688  -5.80427  12.05613
 H  -13.65454  -7.07088  12.23555
 C  -11.35305  -3.93760  10.73015
 C  -10.03770  -4.69590  11.47992
 C  -10.39564  -5.72829  12.76404
 H  -10.87628  -5.12217  13.62427
 H  -9.41494  -6.21554  13.14142
 H  -11.12259  -6.55398  12.40800
 H  -9.48898  -5.31718  10.67873
 H  -9.33581  -3.87157  11.87567
 H  -11.24271  -2.79794  10.89742
 H  -11.28117  -4.15304  9.59536
 H  12.03497  8.46419  -8.50668
 H  16.24996  6.90362  -7.41854
 H  -15.34246  -10.57852  8.85718
 H  -17.24982  -7.50332  11.73651
*
