# ================================================================
# Orca input file made by Matty Jones
# ================================================================
! ZINDO/S 
! NOPOP
! NOMOPRINT
* xyz 0   1
 C  -22.08413  6.93224  -0.03544
 C  -22.48661  5.60384  0.11043
 C  -21.77679  4.88658  1.12333
 C  -20.80894  5.65247  1.78060
 S  -20.88135  7.15565  1.08371
 H  -23.29820  5.11486  -0.52949
 C  -21.99416  3.33966  1.56167
 C  -23.47176  2.62926  1.99478
 C  -24.40317  1.94860  0.77696
 H  -24.70632  2.78912  0.04299
 H  -23.74937  1.17813  0.21629
 H  -23.24146  1.79421  2.75812
 H  -24.10187  3.44736  2.51074
 H  -21.61934  2.67815  0.67026
 H  -21.31431  3.08041  2.46529
 C  -25.73729  1.21268  1.35382
 C  -26.68414  0.58050  0.10952
 C  -27.69635  1.75590  -0.54127
 H  -28.70337  1.27290  -0.84260
 H  -27.18826  2.21305  -1.47593
 H  -27.88455  2.58881  0.23986
 H  -25.99881  0.16896  -0.71799
 H  -27.33228  -0.27008  0.53734
 H  -25.42851  0.33347  2.04054
 H  -26.37233  1.95629  1.96725
 C  28.85844  -1.91065  -2.44614
 C  27.78093  -2.71135  -2.06434
 C  26.72948  -2.00029  -1.40623
 C  26.97798  -0.63121  -1.26765
 S  28.46465  -0.37613  -1.95699
 H  27.74001  -3.83170  -2.28429
 C  25.51168  -2.99486  -0.99387
 C  23.86248  -2.82027  -1.33853
 C  22.76849  -2.09504  -0.29417
 H  23.31590  -1.26877  0.29636
 H  21.92241  -1.61945  -0.91997
 H  23.81829  -2.21336  -2.32613
 H  23.46515  -3.88381  -1.55439
 H  25.53076  -3.07188  0.18340
 H  25.75578  -4.06936  -1.38701
 C  22.14161  -3.19361  0.74384
 C  20.81575  -4.12432  0.23835
 C  21.16435  -5.66567  -0.34836
 H  20.17547  -6.25868  -0.46065
 H  21.85614  -6.21262  0.40098
 H  21.68657  -5.58363  -1.37605
 H  20.27732  -3.54489  -0.59989
 H  20.10684  -4.24340  1.13947
 H  22.97576  -3.94187  1.03869
 H  21.80194  -2.63529  1.70007
 H  -22.46673  7.64749  -0.71782
 H  -20.16402  5.33812  2.56089
 H  29.74219  -2.21863  -2.94386
 H  26.34805  0.09212  -0.81647
*
