# ================================================================
# Orca input file made by Matty Jones
# ================================================================
! ZINDO/S 
! NOPOP
! NOMOPRINT
* xyz 0   1
 C  6.08632  -28.78940  -4.94137
 C  7.24437  -28.13684  -4.51594
 C  8.06385  -28.91399  -3.63915
 C  7.55030  -30.18663  -3.37089
 S  6.12932  -30.28201  -4.22069
 H  7.53024  -27.07489  -4.82172
 C  9.50310  -28.58193  -2.89386
 C  10.37291  -27.36071  -1.96335
 C  11.49211  -26.12559  -2.38212
 H  10.93570  -25.11805  -2.34197
 H  11.83915  -26.33397  -3.46239
 H  10.95835  -28.00806  -1.20460
 H  9.52604  -26.80642  -1.41261
 H  9.65285  -29.42566  -2.11366
 H  10.28995  -28.74238  -3.73942
 C  12.81777  -26.05803  -1.40443
 C  13.02170  -24.85320  -0.21480
 C  13.99525  -23.55601  -0.68555
 H  13.36574  -22.58573  -0.70122
 H  14.42736  -23.75440  -1.74022
 H  14.86597  -23.43971  0.06975
 H  11.98246  -24.44105  0.05750
 H  13.50104  -25.33905  0.71293
 H  13.75480  -25.99316  -2.08281
 H  12.88310  -27.05504  -0.81492
 C  -12.83375  23.26873  -0.70603
 C  -11.64110  23.82430  -0.24038
 C  -11.81840  24.96810  0.59900
 C  -13.15780  25.31747  0.79714
 S  -14.03981  24.20840  -0.06451
 H  -10.61644  23.39257  -0.49273
 C  -10.42926  25.60653  1.13495
 C  -9.99192  27.23956  1.09290
 C  -10.45480  28.15544  2.42521
 H  -11.54394  27.91150  2.70075
 H  -10.37303  29.27302  2.14077
 H  -8.84091  27.29102  1.00973
 H  -10.45852  27.70479  0.14725
 H  -10.34670  25.32233  2.27005
 H  -9.53681  25.06898  0.59988
 C  -9.48160  27.82760  3.68940
 C  -9.82589  28.67346  5.10378
 C  -8.83705  30.01073  5.34047
 H  -9.18473  30.87696  4.65821
 H  -7.74375  29.72645  5.08520
 H  -8.90041  30.33573  6.44964
 H  -10.91801  29.04117  5.04868
 H  -9.70674  27.95823  5.99886
 H  -8.38507  28.05605  3.39748
 H  -9.56372  26.70060  3.94423
 H  5.33726  -28.41065  -5.58871
 H  7.97938  -30.93394  -2.75362
 H  -12.94504  22.42413  -1.33680
 H  -13.53121  26.12261  1.37672
*
