# ================================================================
# Orca input file made by Matty Jones
# ================================================================
! ZINDO/S 
! NOPOP
! NOMOPRINT
* xyz 0   1
 C  15.81055  13.45289  4.35924
 C  15.40808  12.12449  4.50512
 C  16.11789  11.40723  5.51802
 C  17.08574  12.17313  6.17528
 S  17.01334  13.67630  5.47840
 H  14.59649  11.63552  3.86519
 C  15.90053  9.86032  5.95636
 C  14.42293  9.14992  6.38946
 C  13.49152  8.46925  5.17164
 H  13.18837  9.30978  4.43768
 H  14.14532  7.69878  4.61098
 H  14.65322  8.31486  7.15280
 H  13.79282  9.96802  6.90543
 H  16.27534  9.19881  5.06494
 H  16.58038  9.60106  6.85997
 C  12.15740  7.73334  5.74850
 C  11.21055  7.10116  4.50421
 C  10.19833  8.27655  3.85341
 H  9.19132  7.79356  3.55208
 H  10.70643  8.73371  2.91876
 H  10.01013  9.10947  4.63455
 H  11.89588  6.68961  3.67670
 H  10.56241  6.25057  4.93202
 H  12.46618  6.85413  6.43522
 H  11.52235  8.47695  6.36193
 C  -12.31921  -5.90510  -6.77816
 C  -12.31889  -7.04107  -5.96730
 C  -12.24036  -6.75938  -4.56775
 C  -12.17835  -5.39410  -4.27198
 S  -12.22332  -4.61824  -5.73706
 H  -11.96588  -8.04181  -6.40994
 C  -12.27399  -8.12929  -3.69399
 C  -13.62644  -9.04116  -4.36167
 C  -14.38301  -10.57423  -4.20285
 H  -15.51518  -10.39275  -4.08265
 H  -13.96575  -11.06806  -3.25044
 H  -13.41468  -9.07856  -5.49348
 H  -14.50173  -8.30701  -4.16608
 H  -12.46769  -7.92060  -2.57843
 H  -11.31421  -8.75201  -3.83560
 C  -14.12369  -11.55181  -5.49269
 C  -14.90260  -13.06080  -5.51343
 C  -16.40232  -13.15069  -6.28274
 H  -17.23085  -13.29821  -5.48852
 H  -16.40228  -14.05318  -7.00898
 H  -16.60023  -12.17816  -6.87586
 H  -15.05096  -13.38786  -4.41823
 H  -14.19773  -13.80411  -6.04331
 H  -12.98922  -11.76066  -5.57999
 H  -14.46781  -10.99714  -6.45048
 H  15.42796  14.16814  3.67687
 H  17.73067  11.85877  6.95557
 H  -12.37003  -5.87202  -7.83642
 H  -12.11571  -4.94837  -3.31230
*
