# ================================================================
# Orca input file made by Matty Jones
# ================================================================
! ZINDO/S 
! NOPOP
! NOMOPRINT
* xyz 0   1
 C  -6.52109  0.29822  -1.53215
 C  -5.32815  0.53727  -2.21600
 C  -4.16202  0.06025  -1.54010
 C  -4.43552  -0.55861  -0.31637
 S  -6.08261  -0.48406  -0.13756
 H  -5.11738  1.65092  -2.56866
 C  -2.74637  0.32401  -2.30421
 C  -2.78273  1.89831  -3.06686
 C  -1.81844  2.95986  -4.02901
 H  -1.37404  3.76568  -3.33774
 H  -0.97983  2.35410  -4.52568
 H  -3.61460  1.68445  -3.85145
 H  -3.15125  2.58689  -2.21990
 H  -1.86459  0.33077  -1.55451
 H  -2.55909  -0.46475  -3.12338
 C  -2.79409  3.65959  -5.15157
 C  -2.34855  5.03658  -6.04099
 C  -1.64300  4.91546  -7.56442
 H  -1.46767  5.98469  -7.97813
 H  -2.35286  4.34158  -8.27523
 H  -0.63200  4.36214  -7.48064
 H  -3.32665  5.62008  -6.19594
 H  -1.62532  5.63896  -5.37731
 H  -3.02077  2.84839  -5.95120
 H  -3.79407  3.93644  -4.63236
 C  -1.57973  -3.70161  3.54582
 C  -0.38078  -3.00538  3.70612
 C  0.44231  -3.49665  4.76699
 C  -0.10948  -4.58629  5.44782
 S  -1.56622  -4.88042  4.71172
 H  -0.18996  -2.01739  3.16927
 C  1.84478  -2.72955  4.98263
 C  2.56952  -2.37093  3.47246
 C  4.00032  -1.49721  3.27929
 H  4.15025  -0.90497  4.26662
 H  3.79716  -0.72943  2.43202
 H  2.74864  -3.39810  2.97394
 H  1.80171  -1.78018  2.84613
 H  1.67642  -1.73111  5.54391
 H  2.58868  -3.38468  5.58459
 C  5.38315  -2.27624  2.93703
 C  6.64530  -1.18208  2.64901
 C  7.47289  -0.76890  4.05036
 H  8.08663  0.19426  3.86482
 H  8.18438  -1.63431  4.34019
 H  6.71413  -0.58684  4.90540
 H  7.38347  -1.66321  1.90787
 H  6.20663  -0.22227  2.18558
 H  5.24755  -2.91286  1.98163
 H  5.68658  -2.96646  3.81022
 H  -7.50084  0.56129  -1.83953
 H  -3.73646  -0.98592  0.35618
 H  -2.33887  -3.51593  2.82971
 H  0.31454  -5.11385  6.26359
*
