# ================================================================
# Orca input file made by Matty Jones
# ================================================================
! ZINDO/S 
! NOPOP
! NOMOPRINT
* xyz 0   1
 C  -15.03046  -2.08681  -8.44841
 C  -15.46510  -2.95540  -9.45067
 C  -15.25530  -4.33865  -9.15592
 C  -14.65194  -4.56345  -7.91466
 S  -14.41316  -3.06007  -7.25642
 H  -15.22631  -2.82466  -10.61001
 C  -15.73213  -5.37649  -10.30438
 C  -16.76879  -6.74032  -10.24461
 C  -18.41042  -6.36901  -10.54440
 H  -18.78642  -5.84962  -9.57877
 H  -18.41104  -5.58738  -11.40001
 H  -16.42138  -7.49022  -11.04187
 H  -16.68980  -7.20500  -9.19741
 H  -14.74547  -5.84001  -10.74196
 H  -16.20390  -4.74508  -11.17332
 C  -19.49224  -7.53499  -10.93832
 C  -19.76215  -7.73391  -12.60785
 C  -20.94546  -8.85434  -13.04293
 H  -21.99232  -8.38825  -12.88187
 H  -20.83575  -9.80339  -12.39120
 H  -20.81438  -9.13166  -14.15930
 H  -20.07285  -6.71145  -13.03828
 H  -18.76837  -8.06921  -13.08360
 H  -19.13482  -8.55394  -10.52968
 H  -20.51511  -7.27721  -10.46494
 C  22.37504  5.76401  10.89379
 C  21.24686  5.04707  11.29517
 C  20.16808  5.86526  11.75459
 C  20.44583  7.23518  11.71578
 S  21.98981  7.36024  11.12341
 H  20.76496  4.03444  10.91788
 C  18.71357  5.38247  12.26771
 C  17.69035  4.79495  11.05045
 C  16.92568  6.13993  10.30773
 H  17.67390  7.02022  10.43014
 H  16.89080  5.87006  9.17951
 H  18.29755  4.22389  10.26512
 H  16.88301  4.12542  11.51446
 H  18.13807  6.17293  12.87237
 H  18.86823  4.47284  12.99272
 C  15.45427  6.70680  10.72500
 C  14.21495  6.09964  9.74299
 C  13.99884  6.97415  8.31691
 H  13.77998  8.08112  8.56935
 H  13.11061  6.52436  7.72695
 H  14.96206  6.90276  7.67918
 H  13.23040  6.14031  10.33934
 H  14.46134  5.00887  9.47209
 H  15.21626  6.41212  11.81656
 H  15.43831  7.85983  10.63987
 H  -15.08375  -1.02815  -8.44909
 H  -14.39993  -5.49889  -7.48449
 H  23.28606  5.37092  10.52079
 H  19.80392  8.02777  12.00451
*
