# ================================================================
# Orca input file made by Matty Jones
# ================================================================
! ZINDO/S 
! NOPOP
! NOMOPRINT
* xyz 0   1
 C  -1.60386  2.70054  -1.87983
 C  -2.28809  1.48793  -1.97633
 C  -1.70929  0.42839  -1.21042
 C  -0.56224  0.80626  -0.50557
 S  -0.32784  2.40888  -0.86209
 H  -3.36190  1.46630  -2.35586
 C  -2.38715  -1.00509  -1.24734
 C  -4.06957  -0.94331  -1.03810
 C  -4.73137  -0.75228  -2.57463
 H  -5.69806  -0.13134  -2.47928
 H  -3.98063  -0.19717  -3.25385
 H  -4.44093  -1.91188  -0.54982
 H  -4.34603  -0.03695  -0.38464
 H  -2.03799  -1.72162  -0.41869
 H  -2.15538  -1.52078  -2.27435
 C  -5.01749  -2.18363  -3.28992
 C  -5.47072  -2.08695  -4.91311
 C  -5.51993  -0.54310  -5.58337
 H  -5.80224  -0.62967  -6.70316
 H  -4.48185  -0.04140  -5.48923
 H  -6.31386  0.09188  -5.03148
 H  -4.71497  -2.70960  -5.52267
 H  -6.52108  -2.55092  -5.01424
 H  -4.06752  -2.84189  -3.22961
 H  -5.87332  -2.71968  -2.72259
 C  -0.34873  -0.83306  0.86631
 C  0.94259  -0.38115  0.59035
 C  1.97695  -1.17729  1.17392
 C  1.49998  -2.26332  1.91441
 S  -0.15318  -2.18252  1.80962
 H  1.34287  0.71295  0.50277
 C  3.57903  -0.99854  1.09788
 C  4.42892  0.33124  1.77454
 C  4.84409  -0.08229  3.38775
 H  3.84310  -0.13891  3.96568
 H  5.30563  -1.14439  3.35390
 H  5.39820  0.49827  1.18579
 H  3.77832  1.27268  1.77248
 H  4.10366  -1.93734  1.55235
 H  3.87157  -0.95630  -0.03577
 C  5.86840  0.88435  4.20814
 C  5.16294  2.16357  5.05025
 C  5.03012  3.54461  4.10326
 H  4.86750  4.46452  4.78633
 H  4.13021  3.42795  3.38518
 H  6.00036  3.68597  3.48862
 H  4.11253  1.84822  5.40060
 H  5.81940  2.40716  5.96541
 H  6.43509  0.24499  4.99296
 H  6.64655  1.32525  3.47415
 H  -1.84841  3.61512  -2.35664
 H  0.03287  0.19613  0.12466
 H  -1.26194  -0.40403  0.54137
 H  2.07470  -2.98676  2.43395
*
