# ================================================================
# Orca input file made by Matty Jones
# ================================================================
! ZINDO/S 
! NOPOP
! NOMOPRINT
* xyz 0   1
 C  16.92237  6.66432  -7.29274
 C  16.23815  5.45171  -7.38924
 C  16.81695  4.39216  -6.62333
 C  17.96399  4.77004  -5.91848
 S  18.19839  6.37266  -6.27500
 H  15.16433  5.43008  -7.76876
 C  16.13909  2.95869  -6.66024
 C  14.45667  3.02046  -6.45101
 C  13.79486  3.21150  -7.98753
 H  12.82817  3.83244  -7.89218
 H  14.54560  3.76661  -8.66675
 H  14.08531  2.05190  -5.96273
 H  14.18021  3.92683  -5.79755
 H  16.48824  2.24216  -5.83160
 H  16.37085  2.44300  -7.68726
 C  13.50875  1.78015  -8.70283
 C  13.05551  1.87683  -10.32601
 C  13.00630  3.42068  -10.99627
 H  12.72399  3.33410  -12.11607
 H  14.04438  3.92238  -10.90213
 H  12.21238  4.05566  -10.44439
 H  13.81126  1.25418  -10.93558
 H  12.00516  1.41285  -10.42715
 H  14.45871  1.12189  -8.64252
 H  12.65292  1.24410  -8.13549
 C  -17.35718  -7.07626  6.52301
 C  -16.47137  -6.09575  6.97225
 C  -17.05760  -5.14311  7.86278
 C  -18.41315  -5.37252  8.11800
 S  -18.80947  -6.72298  7.24076
 H  -15.37033  -6.05541  6.68661
 C  -16.21074  -3.90535  8.47436
 C  -15.27999  -2.99196  7.41177
 C  -14.59761  -1.72303  8.29462
 H  -14.54400  -2.02462  9.40699
 H  -15.34427  -0.83626  8.21053
 H  -14.45822  -3.64590  6.94579
 H  -15.96318  -2.56309  6.59138
 H  -16.79043  -3.10354  9.06123
 H  -15.45810  -4.37015  9.24065
 C  -13.15661  -1.23687  7.73525
 C  -11.84125  -1.99517  8.48502
 C  -12.19920  -3.02756  9.76914
 H  -12.67983  -2.42144  10.62937
 H  -11.21850  -3.51481  10.14653
 H  -12.92615  -3.85324  9.41311
 H  -11.29254  -2.61645  7.68383
 H  -11.13937  -1.17084  8.88078
 H  -13.04626  -0.09721  7.90252
 H  -13.08472  -1.45230  6.60046
 H  16.67783  7.57890  -7.76955
 H  18.55910  4.15991  -5.28825
 H  -17.14602  -7.87779  5.86229
 H  -19.05338  -4.80259  8.74161
*
