# ================================================================
# Orca input file made by Matty Jones
# ================================================================
! ZINDO/S 
! NOPOP
! NOMOPRINT
* xyz 0   1
 C  -6.03426  1.60840  -4.33271
 C  -4.83474  2.28140  -4.09583
 C  -3.91743  1.56497  -3.26544
 C  -4.39503  0.31997  -2.84450
 S  -5.90588  0.17317  -3.51248
 H  -4.61965  3.43056  -3.92348
 C  -2.42074  1.91957  -2.69019
 C  -0.97437  2.59460  -3.30489
 C  -0.64877  4.23923  -3.05733
 H  -0.11306  4.63203  -4.00319
 H  -1.65700  4.78641  -2.93843
 H  -0.10155  1.99800  -2.84332
 H  -0.98848  2.41929  -4.44365
 H  -2.61804  2.61892  -1.76678
 H  -2.00132  0.91710  -2.24191
 C  0.29566  4.54380  -1.75102
 C  -0.47672  4.76892  -0.26043
 C  0.55281  5.17034  1.01511
 H  1.52449  4.54792  0.94098
 H  0.02131  4.94352  2.01759
 H  0.80668  6.29794  0.95751
 H  -1.24719  5.61597  -0.38025
 H  -1.01546  3.78795  0.01299
 H  1.03912  3.66795  -1.60774
 H  0.90720  5.50602  -1.95382
 C  -2.70183  -4.96795  -0.07654
 C  -1.47017  -4.32861  0.07230
 C  -0.55481  -5.01675  0.92837
 C  -1.06627  -6.20546  1.45818
 S  -2.60250  -6.34061  0.84813
 H  -1.25280  -3.17632  0.21728
 C  0.93321  -4.46895  1.25227
 C  1.12089  -2.88158  1.84289
 C  2.70556  -2.30224  2.09991
 H  2.60275  -1.14489  2.01123
 H  3.33017  -2.65603  1.19732
 H  0.62093  -2.16870  1.09121
 H  0.57288  -2.83089  2.85431
 H  1.46148  -5.16136  2.02262
 H  1.56369  -4.50468  0.26849
 C  3.50641  -2.58227  3.49301
 C  5.12717  -2.06498  3.47742
 C  5.45557  -0.49391  3.98485
 H  5.60688  0.18292  3.05782
 H  6.42307  -0.49417  4.62199
 H  4.57476  -0.09475  4.61826
 H  5.72488  -2.78498  4.15135
 H  5.50521  -2.15240  2.39115
 H  3.51022  -3.71660  3.71408
 H  2.97714  -2.03561  4.36272
 H  -6.85441  1.94403  -4.91435
 H  -3.89591  -0.38284  -2.22762
 H  -3.52681  -4.64423  -0.65810
 H  -0.57495  -6.87913  2.11268
*
