# ================================================================
# Orca input file made by Matty Jones
# ================================================================
! ZINDO/S 
! NOPOP
! NOMOPRINT
* xyz 0   1
 C  -3.10724  9.72302  30.70126
 C  -3.83704  8.59126  31.06787
 C  -3.20116  7.78297  32.06114
 C  -1.96300  8.27899  32.48096
 S  -1.72354  9.67193  31.61332
 H  -4.76337  8.22526  30.50637
 C  -3.85421  6.42112  32.64884
 C  -4.84260  5.32178  31.77105
 C  -6.50824  5.59726  32.06018
 H  -6.68145  5.25425  33.15488
 H  -6.67312  6.74071  32.00641
 H  -4.57994  4.24325  32.05501
 H  -4.65658  5.49820  30.64994
 H  -4.48022  6.69945  33.58833
 H  -2.97517  5.73323  33.00620
 C  -7.62569  4.84609  31.13043
 C  -8.32622  3.30596  31.35377
 C  -8.01558  2.35501  32.70341
 H  -8.42003  2.88536  33.64850
 H  -6.87761  2.17799  32.80454
 H  -8.55532  1.33687  32.57481
 H  -7.99330  2.68020  30.43813
 H  -9.47119  3.45210  31.30332
 H  -8.55002  5.55786  31.12332
 H  -7.19805  4.82231  30.05168
 C  7.07153  -1.69712  -34.92351
 C  6.30362  -2.66347  -34.27207
 C  7.06897  -3.60523  -33.51603
 C  8.44818  -3.38139  -33.57077
 S  8.64534  -2.04878  -34.53809
 H  5.16349  -2.70663  -34.31871
 C  6.46635  -4.85536  -32.65883
 C  5.17310  -4.80910  -31.53377
 C  4.84047  -6.30004  -30.73812
 H  4.65920  -6.00247  -29.63064
 H  5.84326  -6.88032  -30.79339
 H  4.22231  -4.50396  -32.10321
 H  5.42642  -4.03024  -30.73093
 H  7.34973  -5.31419  -32.03017
 H  6.13831  -5.66594  -33.41598
 C  3.65619  -7.34719  -31.14826
 C  3.63885  -8.83407  -30.31089
 C  4.99875  -9.20383  -29.38720
 H  5.93396  -9.19182  -30.06908
 H  4.87345  -10.26022  -28.92996
 H  5.11984  -8.42669  -28.54043
 H  3.49551  -9.67448  -31.08541
 H  2.73457  -8.81598  -29.59445
 H  3.74143  -7.59791  -32.27246
 H  2.62981  -6.84891  -30.95426
 H  -3.38005  10.45988  29.98976
 H  -1.31346  7.85372  33.20266
 H  6.72224  -0.90532  -35.53561
 H  9.20849  -3.94536  -33.09384
*
