# ================================================================
# Orca input file made by Matty Jones
# ================================================================
! ZINDO/S 
! NOPOP
! NOMOPRINT
* xyz 0   1
 C  22.97903  5.27552  -10.61940
 C  22.32676  4.05035  -10.76568
 C  22.92024  2.98087  -10.02523
 C  24.04683  3.36349  -9.29057
 S  24.24653  4.98211  -9.59156
 H  21.22565  4.03546  -11.05803
 C  22.21340  1.54015  -10.14972
 C  20.52785  1.57719  -9.98595
 C  19.86187  1.82841  -11.51226
 H  18.76509  2.16587  -11.37482
 H  20.42024  2.61649  -12.13604
 H  20.15308  0.58465  -9.54628
 H  20.23512  2.44844  -9.29341
 H  22.51225  0.68956  -9.42830
 H  22.45540  1.12967  -11.22035
 C  19.93938  0.42892  -12.33708
 C  19.26765  0.55331  -13.87008
 C  17.64624  0.12205  -13.82876
 H  17.03724  0.85562  -14.48412
 H  17.25459  0.16414  -12.74000
 H  17.53301  -0.95522  -14.23698
 H  19.36096  1.64048  -14.24025
 H  19.83327  -0.14944  -14.58640
 H  21.04065  0.10419  -12.47606
 H  19.38769  -0.40138  -11.75025
 C  -17.17340  0.15245  9.95866
 C  -18.04580  -0.46671  10.85502
 C  -18.74758  0.44103  11.70811
 C  -18.42771  1.78375  11.48425
 S  -17.30918  1.77724  10.25981
 H  -17.65831  -1.42670  11.39933
 C  -19.80724  -0.12660  12.79455
 C  -20.95213  -1.13850  11.99667
 C  -22.29591  -2.09834  12.44586
 H  -22.58512  -1.78079  13.51952
 H  -23.16169  -1.82409  11.73042
 H  -20.24832  -1.91323  11.53806
 H  -21.38408  -0.44160  11.18030
 H  -20.39676  0.73430  13.29931
 H  -19.27202  -0.75571  13.60890
 C  -22.07135  -3.71666  12.41345
 C  -22.26051  -4.43636  10.87819
 C  -23.75530  -5.02576  10.38063
 H  -23.61005  -6.06633  9.89306
 H  -24.20930  -4.29954  9.60097
 H  -24.46295  -5.11607  11.28937
 H  -21.51820  -5.31782  10.82746
 H  -21.97983  -3.63610  10.09756
 H  -22.84106  -4.22208  13.11220
 H  -21.00968  -3.96924  12.78877
 H  22.71894  6.19889  -11.07033
 H  24.64744  2.74787  -8.67099
 H  -16.55453  -0.31705  9.23743
 H  -18.81837  2.62882  11.99104
*
