# ================================================================
# Orca input file made by Matty Jones
# ================================================================
! ZINDO/S 
! NOPOP
! NOMOPRINT
* xyz 0   1
 C  16.10499  6.36346  -0.00816
 C  15.69933  5.02865  0.03228
 C  16.38850  4.23816  1.00408
 C  17.34318  4.95237  1.73471
 S  17.28515  6.50252  1.14812
 H  14.87226  4.59588  -0.62271
 C  16.18785  2.66798  1.33288
 C  14.72614  1.94187  1.79070
 C  13.67739  1.31751  0.64007
 H  13.30015  2.19108  -0.01547
 H  14.26796  0.57633  -0.02148
 H  14.99889  1.07598  2.50557
 H  14.13862  2.74161  2.38588
 H  16.94639  2.32221  2.14969
 H  16.48659  2.07628  0.35883
 C  12.40975  0.55590  1.32752
 C  11.37439  -0.13497  0.18940
 C  10.25904  0.97645  -0.39818
 H  9.27346  0.42980  -0.66072
 H  10.69158  1.47672  -1.34862
 H  10.05168  1.78535  0.40315
 H  11.99895  -0.54331  -0.68715
 H  10.80291  -0.99903  0.69376
 H  12.79629  -0.29547  2.00961
 H  11.80534  1.30008  1.97219
 C  -15.36196  -4.77652  -4.60258
 C  -14.75412  -4.33798  -3.42525
 C  -15.57268  -3.47486  -2.63200
 C  -16.83324  -3.23062  -3.18575
 S  -16.86819  -4.08344  -4.60768
 H  -13.83165  -4.83491  -2.94559
 C  -14.89373  -2.89342  -1.29833
 C  -13.35024  -2.31877  -1.63892
 C  -12.30135  -1.72498  -0.46766
 H  -12.41140  -0.57144  -0.44915
 H  -11.22222  -1.97672  -0.80782
 H  -12.76376  -3.17476  -2.14723
 H  -13.50885  -1.46583  -2.40395
 H  -15.55257  -2.05095  -0.83843
 H  -14.83395  -3.74823  -0.50989
 C  -12.54535  -2.31865  1.02131
 C  -13.69597  -1.44140  1.88029
 C  -13.01959  -0.09330  2.62071
 H  -12.25669  -0.43386  3.42040
 H  -13.85835  0.52953  3.11874
 H  -12.48323  0.54869  1.82101
 H  -14.52654  -1.09817  1.16110
 H  -14.14254  -2.12479  2.69315
 H  -11.55043  -2.29464  1.61325
 H  -12.90386  -3.41714  0.95532
 H  15.73634  7.12726  -0.64401
 H  17.97225  4.58079  2.50269
 H  -14.94797  -5.41751  -5.33834
 H  -17.60492  -2.62681  -2.78135
*
