# ================================================================
# Orca input file made by Matty Jones
# ================================================================
! ZINDO/S 
! NOPOP
! NOMOPRINT
* xyz 0   1
 C  -11.60632  -7.37861  -10.66749
 C  -12.01198  -8.71341  -10.62705
 C  -11.32280  -9.50391  -9.65524
 C  -10.36812  -8.78969  -8.92462
 S  -10.42616  -7.23954  -9.51121
 H  -12.83905  -9.14618  -11.28204
 C  -11.52346  -11.07408  -9.32645
 C  -12.98517  -11.80019  -8.86863
 C  -14.03392  -12.42456  -10.01926
 H  -14.41116  -11.55098  -10.67480
 H  -13.44334  -13.16573  -10.68080
 H  -12.71241  -12.66608  -8.15375
 H  -13.57269  -11.00046  -8.27345
 H  -10.76491  -11.41985  -8.50964
 H  -11.22472  -11.66579  -10.30050
 C  -15.30156  -13.18617  -9.33181
 C  -16.33691  -13.87704  -10.46993
 C  -17.45226  -12.76561  -11.05750
 H  -18.43785  -13.31226  -11.32004
 H  -17.01973  -12.26534  -12.00794
 H  -17.65963  -11.95672  -10.25618
 H  -15.71236  -14.28537  -11.34648
 H  -16.90840  -14.74109  -9.96557
 H  -14.91501  -14.03753  -8.64972
 H  -15.90597  -12.44199  -8.68714
 C  18.08399  11.82640  8.59282
 C  16.74062  12.01864  8.91884
 C  16.51349  12.33866  10.29371
 C  17.68343  12.39943  11.05718
 S  18.91990  12.05879  10.00574
 H  15.89084  11.93013  8.16150
 C  15.15211  12.64883  11.14565
 C  13.64165  11.88590  11.54328
 C  12.05095  11.78376  10.94222
 H  11.37363  12.08347  11.84187
 H  11.97299  12.63264  10.15470
 H  13.96120  10.77103  11.60420
 H  13.46875  12.27066  12.62650
 H  14.72749  13.64175  10.65511
 H  15.51194  12.95535  12.22031
 C  11.39798  10.44129  10.29806
 C  11.40306  10.36541  8.62035
 C  10.19280  9.34282  8.04969
 H  10.21439  8.34546  8.63400
 H  10.35765  9.14530  6.92231
 H  9.16684  9.85952  8.20417
 H  11.23622  11.41941  8.19035
 H  12.42274  9.95695  8.27360
 H  11.97841  9.51520  10.68623
 H  10.29829  10.34678  10.65106
 H  -11.97497  -6.61481  -11.30333
 H  -9.73905  -9.16127  -8.15663
 H  18.48525  11.58312  7.64234
 H  17.76327  12.61754  12.09142
*
