# ================================================================
# Orca input file made by Matty Jones
# ================================================================
! ZINDO/S 
! NOPOP
! NOMOPRINT
* xyz 0   1
 C  -5.21972  11.20472  36.76147
 C  -4.85837  10.03502  36.09130
 C  -3.55568  9.54949  36.42523
 C  -2.88500  10.33978  37.36381
 S  -3.92446  11.58024  37.72604
 H  -5.67871  9.26800  35.82144
 C  -3.18100  8.20672  35.60755
 C  -3.74819  8.23329  33.94291
 C  -4.66521  9.52331  33.24127
 H  -5.59483  9.70520  33.89879
 H  -3.97303  10.44663  33.28707
 H  -2.80121  8.14282  33.29751
 H  -4.39840  7.29292  33.82743
 H  -3.67871  7.28395  36.10300
 H  -2.03566  8.05281  35.57156
 C  -5.34601  9.45491  31.74945
 C  -6.99094  9.00739  31.74525
 C  -8.11896  10.26164  31.84289
 H  -7.70096  11.10795  32.51058
 H  -9.10120  9.85417  32.30100
 H  -8.32972  10.66955  30.78084
 H  -7.16833  8.30467  32.64055
 H  -7.19160  8.43791  30.76335
 H  -5.27744  10.49504  31.25147
 H  -4.77828  8.68851  31.10152
 C  7.16926  -5.66387  -34.89212
 C  6.76678  -6.99227  -34.74625
 C  7.47660  -7.70953  -33.73335
 C  8.44444  -6.94364  -33.07608
 S  8.37204  -5.44046  -33.77297
 H  5.95519  -7.48125  -35.38617
 C  7.25923  -9.25645  -33.29501
 C  5.78163  -9.96684  -32.86190
 C  4.85022  -10.64751  -34.07972
 H  4.54707  -9.80699  -34.81369
 H  5.50402  -11.41798  -34.64039
 H  6.01193  -10.80190  -32.09856
 H  5.15152  -9.14875  -32.34594
 H  7.63404  -9.91796  -34.18642
 H  7.93908  -9.51570  -32.39139
 C  3.51610  -11.38342  -33.50286
 C  2.56925  -12.01561  -34.74716
 C  1.55703  -10.84021  -35.39795
 H  0.55002  -11.32321  -35.69928
 H  2.06513  -10.38305  -36.33260
 H  1.36884  -10.00730  -34.61682
 H  3.25458  -12.42715  -35.57467
 H  1.92111  -12.86619  -34.31934
 H  3.82488  -12.26264  -32.81614
 H  2.88106  -10.63981  -32.88943
 H  -6.13023  11.74013  36.67255
 H  -1.91525  10.17956  37.76069
 H  6.78666  -4.94862  -35.57450
 H  9.08937  -7.25799  -32.29579
*
