# ================================================================
# Orca input file made by Matty Jones
# ================================================================
! ZINDO/S 
! NOPOP
! NOMOPRINT
* xyz 0   1
 C  18.59369  2.27346  -4.13358
 C  19.81770  2.91115  -3.92612
 C  20.72472  2.17875  -3.09836
 C  20.21433  0.95656  -2.64994
 S  18.68916  0.84796  -3.29218
 H  20.49791  3.48423  -4.72361
 C  22.18914  2.77885  -2.75770
 C  22.33563  4.33371  -2.05189
 C  23.87360  5.06331  -1.83825
 H  23.58875  6.18833  -1.67875
 H  24.39717  4.98354  -2.86629
 H  21.72149  5.04659  -2.71456
 H  21.86079  4.26003  -1.00586
 H  22.74628  2.05474  -2.04148
 H  22.80932  2.83290  -3.74561
 C  24.95781  4.74513  -0.65987
 C  26.55354  5.16191  -1.10960
 C  27.20757  6.66844  -0.74394
 H  27.20655  6.81458  0.40309
 H  26.58619  7.49901  -1.25303
 H  28.29869  6.70385  -1.13443
 H  27.24994  4.38425  -0.61740
 H  26.61013  5.06495  -2.25866
 H  24.94439  3.61908  -0.40871
 H  24.70359  5.34606  0.29355
 C  -18.13904  -3.72092  0.24679
 C  -19.41603  -4.24686  0.44823
 C  -20.25798  -3.43643  1.27200
 C  -19.64271  -2.26465  1.72330
 S  -18.11091  -2.29258  1.08829
 H  -19.77560  -5.22771  -0.01482
 C  -21.73968  -4.01175  1.57252
 C  -23.15632  -3.06900  1.60320
 C  -24.52164  -4.05999  1.83230
 H  -25.40799  -3.52187  1.31780
 H  -24.32312  -5.05273  1.27147
 H  -23.25878  -2.50802  0.60777
 H  -23.14929  -2.34407  2.48162
 H  -21.72912  -4.54279  2.61773
 H  -21.97336  -4.83062  0.77396
 C  -24.93017  -4.38561  3.37239
 C  -26.26242  -5.42362  3.49497
 C  -27.74711  -4.63485  3.52671
 H  -28.55348  -5.35925  3.93253
 H  -28.02746  -4.30434  2.45367
 H  -27.67625  -3.70746  4.21469
 H  -26.15411  -6.03183  4.46783
 H  -26.25146  -6.13858  2.59145
 H  -24.04165  -4.89428  3.91023
 H  -25.18889  -3.40496  3.92601
 H  17.77555  2.62610  -4.70794
 H  20.70048  0.24787  -2.02944
 H  -17.35292  -4.14517  -0.32385
 H  -20.06661  -1.51540  2.34179
*
