# ================================================================
# Orca input file made by Matty Jones
# ================================================================
! ZINDO/S 
! NOPOP
! NOMOPRINT
* xyz 0   1
 C  22.92814  -3.38229  -11.70330
 C  24.21947  -2.93039  -11.97926
 C  25.25382  -3.72652  -11.39570
 C  24.77685  -4.81255  -10.65521
 S  23.12370  -4.73175  -10.76000
 H  24.61975  -1.83628  -12.06685
 C  26.85590  -3.54777  -11.47174
 C  27.70580  -2.21799  -10.79508
 C  28.12097  -2.63152  -9.18186
 H  27.11998  -2.68814  -8.60394
 H  28.58251  -3.69362  -9.21572
 H  28.67507  -2.05096  -11.38383
 H  27.05519  -1.27655  -10.79714
 H  27.38053  -4.48658  -11.01727
 H  27.14844  -3.50553  -12.60539
 C  29.14527  -1.66489  -8.36148
 C  28.43981  -0.38566  -7.51937
 C  28.30699  0.99538  -8.46636
 H  28.14438  1.91528  -7.78329
 H  27.40708  0.87872  -9.18444
 H  29.27724  1.13674  -9.08100
 H  27.38940  -0.70101  -7.16902
 H  29.09627  -0.14207  -6.60421
 H  29.71196  -2.30425  -7.57666
 H  29.92343  -1.22398  -9.09547
 C  -22.13619  1.83385  10.17168
 C  -23.26437  1.11692  10.57306
 C  -24.34315  1.93511  11.03248
 C  -24.06540  3.30503  10.99367
 S  -22.52142  3.43009  10.40131
 H  -23.74627  0.10429  10.19577
 C  -25.79766  1.45231  11.54560
 C  -26.82088  0.86480  10.32834
 C  -27.58555  2.20978  9.58562
 H  -26.83733  3.09006  9.70804
 H  -27.62043  1.93991  8.45741
 H  -26.21368  0.29373  9.54301
 H  -27.62822  0.19527  10.79235
 H  -26.37316  2.24278  12.15026
 H  -25.64300  0.54269  12.27062
 C  -29.05696  2.77665  10.00290
 C  -30.29628  2.16948  9.02088
 C  -30.51239  3.04399  7.59480
 H  -30.73125  4.15097  7.84724
 H  -31.40062  2.59421  7.00484
 H  -29.54917  2.97261  6.95707
 H  -31.28083  2.21016  9.61724
 H  -30.04989  1.07872  8.74998
 H  -29.29497  2.48196  11.09445
 H  -29.07292  3.92968  9.91776
 H  22.01494  -2.95326  -12.02825
 H  25.35157  -5.53600  -10.13567
 H  -21.22517  1.44076  9.79869
 H  -24.70731  4.09761  11.28241
*
