# ================================================================
# Orca input file made by Matty Jones
# ================================================================
! ZINDO/S 
! NOPOP
! NOMOPRINT
* xyz 0   1
 C  -25.29354  -1.04412  2.48060
 C  -24.04415  -0.42543  2.41634
 C  -23.06283  -1.00001  3.28301
 C  -23.53975  -2.07786  4.03542
 S  -25.12816  -2.26064  3.59496
 H  -23.87051  0.56365  1.88631
 C  -21.60790  -0.30881  3.24254
 C  -21.02938  0.04496  1.65185
 C  -21.32533  1.49289  0.75843
 H  -21.42693  2.31763  1.56636
 H  -20.34485  1.67990  0.16861
 H  -19.88061  -0.02081  1.73337
 H  -21.41573  -0.80780  0.98009
 H  -21.60946  0.68748  3.83691
 H  -20.82013  -1.02417  3.70966
 C  -22.56420  1.68937  -0.29497
 C  -22.50015  3.10871  -1.23704
 C  -21.92717  3.04460  -2.82126
 H  -22.57707  2.31068  -3.43515
 H  -20.82630  2.69246  -2.82100
 H  -21.99620  4.10323  -3.28733
 H  -23.54654  3.57711  -1.25907
 H  -21.75250  3.78322  -0.68574
 H  -22.59686  0.79369  -1.02204
 H  -23.56780  1.76101  0.26652
 C  20.66306  -5.50159  -0.68482
 C  21.42859  -4.33465  -0.67394
 C  20.84333  -3.25930  0.06454
 C  19.60944  -3.57873  0.63970
 S  19.31171  -5.15270  0.21030
 H  22.45431  -4.22980  -1.16299
 C  21.76972  -1.92154  0.03066
 C  21.35031  -0.30342  -0.25093
 C  22.79211  0.62418  -0.33098
 H  22.53297  1.70292  -0.01570
 H  23.55450  0.18185  0.41209
 H  20.78972  -0.22269  -1.24902
 H  20.70897  0.08648  0.61358
 H  22.30628  -1.88096  1.06884
 H  22.62157  -2.09542  -0.76374
 C  23.42718  0.62754  -1.84000
 C  24.91151  1.40115  -2.11033
 C  24.82092  3.01531  -2.57431
 H  23.83892  3.19905  -3.15768
 H  25.72501  3.26859  -3.25235
 H  24.84505  3.68613  -1.63175
 H  25.53035  1.33693  -1.14106
 H  25.45539  0.82623  -2.95053
 H  23.57485  -0.47069  -2.17841
 H  22.66232  1.12576  -2.55379
 H  -26.16452  -0.78988  1.93254
 H  -22.99922  -2.65687  4.73982
 H  20.89637  -6.41774  -1.16424
 H  18.99337  -2.94710  1.22715
*
