# ================================================================
# Orca input file made by Matty Jones
# ================================================================
! ZINDO/S 
! NOPOP
! NOMOPRINT
* xyz 0   1
 C  -23.72427  -3.73118  -16.31025
 C  -22.56622  -3.07862  -15.88482
 C  -21.74674  -3.85577  -15.00803
 C  -22.26030  -5.12841  -14.73977
 S  -23.68127  -5.22379  -15.58957
 H  -22.28035  -2.01666  -16.19060
 C  -20.30749  -3.52370  -14.26274
 C  -19.43768  -2.30248  -13.33223
 C  -18.31848  -1.06737  -13.75100
 H  -18.87489  -0.05982  -13.71085
 H  -17.97144  -1.27575  -14.83126
 H  -18.85224  -2.94984  -12.57348
 H  -20.28455  -1.74820  -12.78149
 H  -20.15774  -4.36743  -13.48253
 H  -19.52065  -3.68416  -15.10830
 C  -16.99282  -0.99980  -12.77331
 C  -16.78889  0.20502  -11.58368
 C  -15.81535  1.50222  -12.05442
 H  -16.44485  2.47250  -12.07010
 H  -15.38324  1.30382  -13.10910
 H  -14.94462  1.61852  -11.29913
 H  -17.82813  0.61717  -11.31137
 H  -16.30955  -0.28083  -10.65594
 H  -16.05580  -0.93494  -13.45169
 H  -16.92749  -1.99682  -12.18380
 C  17.21978  -2.01946  12.43891
 C  17.86706  -0.91226  12.98940
 C  16.99750  -0.01077  13.67893
 C  15.65684  -0.40814  13.67289
 S  15.61844  -1.83390  12.82663
 H  18.99705  -0.75433  12.94414
 C  17.49428  1.33769  14.42010
 C  18.69223  2.32915  13.75137
 C  20.19330  1.87083  14.39488
 H  20.25865  0.71749  14.33717
 H  20.17304  2.17782  15.51349
 H  18.71173  2.19097  12.61208
 H  18.48161  3.42542  14.02140
 H  16.57579  2.05152  14.55923
 H  17.89165  1.06379  15.48041
 C  21.51206  2.51976  13.70251
 C  21.93134  4.09344  14.14690
 C  21.25475  5.24528  13.12123
 H  20.75426  4.72358  12.21741
 H  22.08806  5.95387  12.74174
 H  20.46066  5.85466  13.70171
 H  21.56705  4.29089  15.22066
 H  23.07858  4.19138  14.10296
 H  21.38448  2.49760  12.55282
 H  22.42336  1.85378  13.97533
 H  -24.47333  -3.35242  -16.95759
 H  -21.83121  -5.87571  -14.12250
 H  17.65927  -2.81190  11.88892
 H  14.83679  0.09630  14.11636
*
