# ================================================================
# Orca input file made by Matty Jones
# ================================================================
! ZINDO/S 
! NOPOP
! NOMOPRINT
* xyz 0   1
 C  -21.80934  -6.50608  -13.29901
 C  -20.51801  -6.05417  -13.57497
 C  -19.48365  -6.85030  -12.99141
 C  -19.96063  -7.93634  -12.25092
 S  -21.61378  -7.85554  -12.35571
 H  -20.11773  -4.96006  -13.66256
 C  -17.88158  -6.67156  -13.06745
 C  -17.03168  -5.34178  -12.39079
 C  -16.61651  -5.75531  -10.77757
 H  -17.61750  -5.81192  -10.19965
 H  -16.15497  -6.81741  -10.81143
 H  -16.06241  -5.17474  -12.97954
 H  -17.68229  -4.40034  -12.39285
 H  -17.35695  -7.61036  -12.61298
 H  -17.58904  -6.62931  -14.20110
 C  -15.59221  -4.78867  -9.95719
 C  -16.29767  -3.50945  -9.11508
 C  -16.43049  -2.12841  -10.06207
 H  -16.59310  -1.20850  -9.37900
 H  -17.33040  -2.24507  -10.78015
 H  -15.46024  -1.98705  -10.67671
 H  -17.34807  -3.82480  -8.76473
 H  -15.64121  -3.26586  -8.19992
 H  -15.02552  -5.42803  -9.17237
 H  -14.81405  -4.34777  -10.69118
 C  15.75156  1.39206  10.23862
 C  16.39883  2.49927  10.78910
 C  15.52927  3.40076  11.47864
 C  14.18861  3.00339  11.47260
 S  14.15021  1.57762  10.62634
 H  17.52883  2.65720  10.74384
 C  16.02605  4.74922  12.21980
 C  17.22400  5.74068  11.55107
 C  18.72507  5.28236  12.19459
 H  18.79042  4.12902  12.13687
 H  18.70481  5.58935  13.31320
 H  17.24350  5.60249  10.41179
 H  17.01338  6.83695  11.82110
 H  15.10757  5.46305  12.35894
 H  16.42343  4.47531  13.28011
 C  20.04383  5.93128  11.50222
 C  20.46311  7.50497  11.94661
 C  19.78652  8.65681  10.92094
 H  19.28603  8.13510  10.01712
 H  20.61983  9.36540  10.54144
 H  18.99243  9.26618  11.50141
 H  20.09882  7.70241  13.02037
 H  21.61035  7.60291  11.90266
 H  19.91625  5.90913  10.35253
 H  20.95514  5.26530  11.77503
 H  -22.72254  -6.07704  -13.62396
 H  -19.38591  -8.65978  -11.73138
 H  16.19105  0.59962  9.68863
 H  13.36856  3.50783  11.91606
*
