# ================================================================
# Orca input file made by Matty Jones
# ================================================================
! ZINDO/S 
! NOPOP
! NOMOPRINT
* xyz 0   1
 C  -16.21370  28.18717  -5.03062
 C  -15.01475  28.88341  -4.87032
 C  -14.19165  28.39214  -3.80945
 C  -14.74345  27.30249  -3.12863
 S  -16.20018  27.00837  -3.86472
 H  -14.82393  29.87139  -5.40717
 C  -12.78919  29.15924  -3.59382
 C  -12.06445  29.51786  -5.10398
 C  -10.63365  30.39157  -5.29716
 H  -10.48372  30.98382  -4.30983
 H  -10.83681  31.15936  -6.14443
 H  -11.88533  28.49069  -5.60250
 H  -12.83226  30.10860  -5.73031
 H  -12.95755  30.15768  -3.03254
 H  -12.04529  28.50410  -2.99185
 C  -9.25082  29.61255  -5.63942
 C  -7.98867  30.70671  -5.92744
 C  -7.16107  31.11989  -4.52609
 H  -6.54733  32.08304  -4.71162
 H  -6.44959  30.25448  -4.23626
 H  -7.91984  31.30194  -3.67104
 H  -7.25050  30.22557  -6.66857
 H  -8.42733  31.66652  -6.39087
 H  -9.38642  28.97593  -6.59482
 H  -8.94738  28.92232  -4.76623
 C  9.18375  -33.64768  3.11473
 C  9.95059  -32.71480  3.81443
 C  9.18135  -31.72875  4.50743
 C  7.80013  -31.88380  4.35418
 S  7.60606  -33.21403  3.38297
 H  11.08848  -32.75737  3.88355
 C  9.87358  -30.56313  5.39317
 C  11.26482  -29.73844  4.89866
 C  11.75694  -28.52057  5.98142
 H  11.44818  -28.84940  7.04640
 H  11.18244  -27.55571  5.70857
 H  12.11921  -30.50578  4.81604
 H  11.06459  -29.25553  3.87582
 H  9.09833  -29.70086  5.54618
 H  10.15453  -30.99904  6.43364
 C  13.36013  -28.23430  5.94981
 C  13.94142  -27.55482  4.51779
 C  13.94907  -25.87928  4.42253
 H  14.76605  -25.45621  5.12408
 H  12.91298  -25.47083  4.73537
 H  14.17616  -25.56587  3.33090
 H  15.02921  -27.91803  4.38150
 H  13.29795  -27.95823  3.64949
 H  13.93226  -29.22348  6.13006
 H  13.62626  -27.49900  6.80490
 H  -16.97284  28.37286  -5.74674
 H  -14.31943  26.77493  -2.31285
 H  9.53574  -34.46176  2.53424
 H  7.03692  -31.27796  4.77140
*
