# ================================================================
# Orca input file made by Matty Jones
# ================================================================
! ZINDO/S 
! NOPOP
! NOMOPRINT
* xyz 0   1
 C  10.52985  15.92833  -2.47657
 C  10.89119  14.75863  -3.14674
 C  12.19389  14.27309  -2.81281
 C  12.86457  15.06338  -1.87423
 S  11.82510  16.30384  -1.51200
 H  10.07085  13.99161  -3.41659
 C  12.56857  12.93033  -3.63049
 C  12.00137  12.95689  -5.29512
 C  11.08435  14.24692  -5.99676
 H  10.15473  14.42881  -5.33925
 H  11.77654  15.17024  -5.95097
 H  12.94835  12.86642  -5.94052
 H  11.35117  12.01653  -5.41061
 H  12.07086  12.00756  -3.13504
 H  13.71391  12.77641  -3.66648
 C  10.40356  14.17852  -7.48859
 C  8.75863  13.73100  -7.49279
 C  7.63060  14.98525  -7.39514
 H  8.04861  15.83156  -6.72746
 H  6.64836  14.57777  -6.93703
 H  7.41985  15.39316  -8.45719
 H  8.58124  13.02827  -6.59749
 H  8.55797  13.16152  -8.47468
 H  10.47212  15.21865  -7.98657
 H  10.97128  13.41212  -8.13652
 C  -5.62473  -14.55234  5.55887
 C  -6.72600  -15.07166  4.87667
 C  -7.87342  -14.21866  4.88511
 C  -7.67720  -13.01973  5.57748
 S  -6.11631  -13.07734  6.13492
 H  -6.56274  -15.33246  3.70631
 C  -9.18955  -14.74472  4.10835
 C  -10.78806  -14.36842  4.49227
 C  -11.51969  -15.30028  5.69022
 H  -11.16087  -16.39210  5.57062
 H  -11.15492  -14.89811  6.71244
 H  -10.83961  -13.26360  4.80518
 H  -11.40635  -14.51325  3.52472
 H  -9.16949  -15.91684  4.11786
 H  -9.08002  -14.43053  2.98049
 C  -13.14717  -15.25079  5.63180
 C  -13.88224  -13.83680  6.18451
 C  -14.16850  -12.73444  4.94064
 H  -13.38606  -11.88426  4.99721
 H  -15.23198  -12.29397  5.06321
 H  -14.08934  -13.26512  3.91553
 H  -14.89013  -14.11014  6.66950
 H  -13.19680  -13.33918  6.96392
 H  -13.49579  -15.43299  4.54369
 H  -13.56059  -16.11285  6.28946
 H  9.61933  16.46373  -2.56548
 H  13.83432  14.90316  -1.47735
 H  -4.67443  -15.00536  5.68262
 H  -8.37914  -12.23777  5.71685
*
