# ================================================================
# Orca input file made by Matty Jones
# ================================================================
! ZINDO/S 
! NOPOP
! NOMOPRINT
* xyz 0   1
 C  12.74180  4.80655  -3.90274
 C  14.03312  5.25846  -4.17870
 C  15.06748  4.46233  -3.59514
 C  14.59051  3.37629  -2.85464
 S  12.93735  3.45709  -2.95944
 H  14.43340  6.35257  -4.26629
 C  16.66956  4.64108  -3.67118
 C  17.51945  5.97085  -2.99452
 C  17.93463  5.55732  -1.38130
 H  16.93363  5.50071  -0.80338
 H  18.39616  4.49522  -1.41516
 H  18.48873  6.13789  -3.58327
 H  16.86885  6.91229  -2.99657
 H  17.19419  3.70227  -3.21671
 H  16.96210  4.68332  -4.80482
 C  18.95893  6.52396  -0.56092
 C  18.25347  7.80318  0.28119
 C  18.12065  9.18423  -0.66580
 H  17.95804  10.10413  0.01727
 H  17.22074  9.06756  -1.38388
 H  19.09089  9.32559  -1.28044
 H  17.20306  7.48784  0.63154
 H  18.90993  8.04677  1.19635
 H  19.52562  5.88460  0.22390
 H  19.73709  6.96486  -1.29491
 C  -18.60217  -10.77423  2.33155
 C  -17.83664  -9.60729  2.34243
 C  -18.42189  -8.53194  3.08092
 C  -19.65579  -8.85136  3.65607
 S  -19.95351  -10.42534  3.22667
 H  -16.81091  -9.50243  1.85338
 C  -17.49551  -7.19418  3.04703
 C  -17.91491  -5.57605  2.76545
 C  -16.47312  -4.64846  2.68539
 H  -16.73225  -3.56971  3.00067
 H  -15.71072  -5.09079  3.42847
 H  -18.47550  -5.49532  1.76735
 H  -18.55625  -5.18615  3.62995
 H  -16.95894  -7.15359  4.08521
 H  -16.64365  -7.36806  2.25263
 C  -15.83805  -4.64510  1.17637
 C  -14.35372  -3.87149  0.90604
 C  -14.44430  -2.25733  0.44206
 H  -15.42630  -2.07359  -0.14131
 H  -13.54022  -2.00404  -0.23598
 H  -14.42017  -1.58651  1.38463
 H  -13.73487  -3.93570  1.87531
 H  -13.80983  -4.44640  0.06584
 H  -15.69038  -5.74333  0.83796
 H  -16.60290  -4.14688  0.46258
 H  11.82860  5.23559  -4.22769
 H  15.16523  2.65285  -2.33511
 H  -18.36885  -11.69037  1.85213
 H  -20.27186  -8.21973  4.24352
*
