# ================================================================
# Orca input file made by Matty Jones
# ================================================================
! ZINDO/S 
! NOPOP
! NOMOPRINT
* xyz 0   1
 C  -4.57002  4.35756  -4.52567
 C  -4.97250  3.02916  -4.37980
 C  -4.26268  2.31190  -3.36690
 C  -3.29483  3.07779  -2.70963
 S  -3.36724  4.58097  -3.40652
 H  -5.78409  2.54018  -5.01972
 C  -4.48005  0.76498  -2.92856
 C  -5.95765  0.05458  -2.49545
 C  -6.88906  -0.62608  -3.71328
 H  -7.19221  0.21444  -4.44724
 H  -6.23526  -1.39655  -4.27394
 H  -5.72735  -0.78047  -1.73211
 H  -6.58776  0.87268  -1.97949
 H  -4.10523  0.10347  -3.81997
 H  -3.80020  0.50573  -2.02494
 C  -8.22318  -1.36200  -3.13641
 C  -9.17003  -1.99418  -4.38071
 C  -10.18224  -0.81878  -5.03151
 H  -11.18926  -1.30178  -5.33284
 H  -9.67415  -0.36163  -5.96616
 H  -10.37044  0.01413  -4.25037
 H  -8.48470  -2.40572  -5.20822
 H  -9.81817  -2.84477  -3.95289
 H  -7.91440  -2.24121  -2.44969
 H  -8.85822  -0.61839  -2.52299
 C  1.71098  -1.66318  4.64715
 C  2.97024  -1.52802  4.06073
 C  4.05117  -1.95366  4.89421
 C  3.64338  -2.42731  6.14508
 S  1.99014  -2.29638  6.15388
 H  3.32541  -0.55337  3.50783
 C  5.56919  -1.85909  4.34528
 C  5.98294  -0.35802  3.63444
 C  7.51320  -0.07392  2.94318
 H  7.33916  0.67009  2.07193
 H  7.86593  -1.08226  2.49789
 H  5.23876  -0.17499  2.77388
 H  5.83409  0.43917  4.45373
 H  6.32328  -2.03355  5.21407
 H  5.74922  -2.67213  3.53570
 C  8.68270  0.51952  3.90457
 C  10.15649  0.94744  3.17569
 C  10.26873  0.83777  1.50013
 H  10.09049  -0.25618  1.17080
 H  11.32735  1.17378  1.17097
 H  9.47799  1.52861  1.01463
 H  10.38041  2.04141  3.46609
 H  10.97106  0.26277  3.62156
 H  8.93058  -0.26719  4.71732
 H  8.28532  1.47348  4.42772
 H  -4.95262  5.07281  -5.20805
 H  -2.64991  2.76344  -1.92934
 H  0.77374  -1.41364  4.21946
 H  4.26151  -2.79340  6.92450
*
