# ================================================================
# Orca input file made by Matty Jones
# ================================================================
! ZINDO/S 
! NOPOP
! NOMOPRINT
* xyz 0   1
 C  13.37767  3.38015  7.37334
 C  14.63693  3.51531  6.78692
 C  15.71786  3.08967  7.62040
 C  15.31007  2.61602  8.87127
 S  13.65683  2.74695  8.88007
 H  14.99210  4.48996  6.23402
 C  17.23588  3.18424  7.07147
 C  17.64964  4.68531  6.36063
 C  19.17989  4.96941  5.66937
 H  19.00585  5.71342  4.79812
 H  19.53262  3.96107  5.22408
 H  16.90545  4.86834  5.50007
 H  17.50078  5.48250  7.17992
 H  17.98997  3.00978  7.94026
 H  17.41591  2.37120  6.26189
 C  20.34940  5.56285  6.63076
 C  21.82319  5.99077  5.90188
 C  21.93542  5.88110  4.22632
 H  21.75718  4.78715  3.89699
 H  22.99404  6.21711  3.89716
 H  21.14469  6.57194  3.74082
 H  22.04710  7.08474  6.19228
 H  22.63775  5.30610  6.34775
 H  20.59727  4.77614  7.44351
 H  19.95201  6.51681  7.15391
 C  -20.55996  -8.17439  -9.44564
 C  -19.36732  -7.61881  -8.97999
 C  -19.54461  -6.47501  -8.14061
 C  -20.88401  -6.12564  -7.94247
 S  -21.76602  -7.23472  -8.80412
 H  -18.34265  -8.05055  -9.23234
 C  -18.15547  -5.83658  -7.60465
 C  -17.71813  -4.20356  -7.64670
 C  -18.18101  -3.28768  -6.31439
 H  -19.27015  -3.53162  -6.03886
 H  -18.09925  -2.17010  -6.59884
 H  -16.56712  -4.15209  -7.72988
 H  -18.18473  -3.73832  -8.59236
 H  -18.07291  -6.12078  -6.46956
 H  -17.26302  -6.37414  -8.13973
 C  -17.20781  -3.61552  -5.05021
 C  -17.55210  -2.76966  -3.63583
 C  -16.56326  -1.43239  -3.39913
 H  -16.91094  -0.56616  -4.08140
 H  -15.46996  -1.71666  -3.65441
 H  -16.62662  -1.10738  -2.28997
 H  -18.64422  -2.40195  -3.69093
 H  -17.43296  -3.48489  -2.74074
 H  -16.11129  -3.38707  -5.34213
 H  -17.28994  -4.74251  -4.79538
 H  12.44043  3.62969  6.94565
 H  15.92821  2.24993  9.65069
 H  -20.67125  -9.01898  -10.07641
 H  -21.25742  -5.32050  -7.36289
*
