# ================================================================
# Orca input file made by Matty Jones
# ================================================================
! ZINDO/S 
! NOPOP
! NOMOPRINT
* xyz 0   1
 C  14.34334  2.57652  -7.46143
 C  15.54286  3.24952  -7.22455
 C  16.46016  2.53309  -6.39416
 C  15.98256  1.28809  -5.97322
 S  14.47171  1.14130  -6.64120
 H  15.75794  4.39868  -7.05220
 C  17.95685  2.88770  -5.81891
 C  19.40322  3.56273  -6.43361
 C  19.72883  5.20735  -6.18605
 H  20.26453  5.60015  -7.13191
 H  18.72059  5.75454  -6.06715
 H  20.27605  2.96612  -5.97204
 H  19.38911  3.38742  -7.57237
 H  17.75956  3.58705  -4.89550
 H  18.37628  1.88523  -5.37063
 C  20.67325  5.51193  -4.87974
 C  19.90087  5.73704  -3.38915
 C  20.93040  6.13847  -2.11361
 H  21.90209  5.51605  -2.18774
 H  20.39891  5.91164  -1.11113
 H  21.18428  7.26607  -2.17121
 H  19.13040  6.58410  -3.50897
 H  19.36214  4.75607  -3.11573
 H  21.41672  4.63608  -4.73646
 H  21.28480  6.47415  -5.08254
 C  -21.08183  -7.44219  3.54994
 C  -20.20325  -6.50475  4.09508
 C  -20.83227  -5.53606  4.93781
 C  -22.21452  -5.70945  5.05873
 S  -22.58051  -7.03355  4.12966
 H  -19.08049  -6.50272  3.90146
 C  -20.04221  -4.33520  5.66327
 C  -19.02748  -3.40612  4.69235
 C  -18.37050  -2.10716  5.55040
 H  -19.23800  -1.61829  6.14488
 H  -18.00328  -1.33949  4.76327
 H  -18.18196  -4.06908  4.29088
 H  -19.64744  -2.98798  3.81600
 H  -20.69930  -3.58903  6.24981
 H  -19.33577  -4.82518  6.47202
 C  -17.15433  -2.44084  6.57316
 C  -15.62613  -2.54542  5.87323
 C  -15.23265  -4.12819  5.46050
 H  -14.21104  -4.13660  4.91762
 H  -16.04445  -4.56691  4.76481
 H  -15.16491  -4.76362  6.42606
 H  -15.60408  -1.89960  4.92017
 H  -14.84698  -2.15425  6.62569
 H  -17.36779  -3.44348  7.11077
 H  -17.10198  -1.60508  7.37559
 H  13.52319  2.91216  -8.04307
 H  16.48168  0.58529  -5.35634
 H  -20.84164  -8.24593  2.90194
 H  -22.88750  -5.11834  5.62554
*
