# ================================================================
# Orca input file made by Matty Jones
# ================================================================
! ZINDO/S 
! NOPOP
! NOMOPRINT
* xyz 0   1
 C  0.46561  5.36063  -4.16571
 C  -0.29413  4.28462  -3.70430
 C  0.40026  3.42681  -2.79532
 C  1.71495  3.82748  -2.53768
 S  1.94577  5.20267  -3.43546
 H  -1.36767  4.06737  -4.02565
 C  -0.27719  2.13059  -2.11708
 C  -1.24859  1.03489  -2.99262
 C  -2.91473  1.37773  -2.99461
 H  -3.25709  1.38666  -1.88966
 H  -3.04317  2.44063  -3.42894
 H  -1.11211  -0.00566  -2.51997
 H  -0.88527  1.02397  -4.08337
 H  -0.94285  2.48295  -1.22295
 H  0.56717  1.45303  -1.67718
 C  -3.85929  0.34350  -3.83228
 C  -4.35443  -1.06209  -3.02261
 C  -5.78311  -0.95115  -2.13933
 H  -6.39812  -0.04087  -2.50034
 H  -5.52804  -0.82632  -1.01696
 H  -6.40023  -1.91957  -2.28859
 H  -3.50973  -1.37326  -2.30316
 H  -4.50010  -1.88339  -3.81978
 H  -4.82164  0.89978  -4.15705
 H  -3.29554  0.00520  -4.78415
 C  4.65916  1.68804  1.91955
 C  4.09832  0.50055  2.39201
 C  4.63348  0.05898  3.64217
 C  5.62188  0.90204  4.15947
 S  5.77943  2.13214  3.05835
 H  3.27024  -0.06605  1.84614
 C  4.11985  -1.31144  4.32627
 C  2.46630  -1.74076  4.39046
 C  1.97628  -2.69317  3.07989
 H  2.16083  -2.07739  2.11914
 H  2.67547  -3.61720  3.06067
 H  2.28467  -2.33683  5.35736
 H  1.84130  -0.77695  4.39807
 H  4.37779  -1.32249  5.45835
 H  4.66004  -2.20729  3.82543
 C  0.43163  -3.21269  3.10326
 C  -0.41158  -2.86739  1.68125
 C  -2.00277  -3.41219  1.68192
 H  -2.07085  -4.40873  2.26575
 H  -2.34964  -3.57760  0.58978
 H  -2.67716  -2.61856  2.18650
 H  0.14221  -3.37725  0.80818
 H  -0.41375  -1.72646  1.52531
 H  0.40745  -4.35829  3.25881
 H  -0.13661  -2.70877  3.97542
 H  0.16065  6.11893  -4.84067
 H  2.41703  3.35184  -1.90171
 H  4.41946  2.19839  1.02195
 H  6.15816  0.78038  5.06567
*
