# ================================================================
# Orca input file made by Matty Jones
# ================================================================
! ZINDO/S 
! NOPOP
! NOMOPRINT
* xyz 0   1
 C  15.47254  7.93261  9.82124
 C  16.73180  8.06777  9.23482
 C  17.81273  7.64213  10.06830
 C  17.40494  7.16848  11.31917
 S  15.75170  7.29941  11.32797
 H  17.08697  9.04242  8.68192
 C  19.33075  7.73670  9.51937
 C  19.74450  9.23777  8.80853
 C  21.27476  9.52187  8.11726
 H  21.10072  10.26588  7.24602
 H  21.62749  8.51353  7.67198
 H  19.00032  9.42080  7.94796
 H  19.59565  10.03496  9.62782
 H  20.08484  7.56224  10.38815
 H  19.51078  6.92366  8.70979
 C  22.44426  10.11531  9.07866
 C  23.91805  10.54323  8.34978
 C  24.03029  10.43356  6.67421
 H  23.85205  9.33961  6.34488
 H  25.08891  10.76957  6.34506
 H  23.23955  11.12440  6.18872
 H  24.14197  11.63720  8.64017
 H  24.73262  9.85856  8.79564
 H  22.69214  9.32860  9.89141
 H  22.04688  11.06927  9.60180
 C  -18.93822  -5.40465  -10.48899
 C  -18.93791  -6.54061  -9.67813
 C  -18.85937  -6.25893  -8.27858
 C  -18.79736  -4.89365  -7.98281
 S  -18.84234  -4.11778  -9.44789
 H  -18.58490  -7.54136  -10.12077
 C  -18.89301  -7.62883  -7.40483
 C  -20.24545  -8.54070  -8.07250
 C  -21.00202  -10.07378  -7.91368
 H  -22.13420  -9.89229  -7.79348
 H  -20.58476  -10.56760  -6.96128
 H  -20.03370  -8.57810  -9.20431
 H  -21.12075  -7.80656  -7.87691
 H  -19.08671  -7.42014  -6.28926
 H  -17.93323  -8.25156  -7.54643
 C  -20.74271  -11.05136  -9.20352
 C  -21.52162  -12.56034  -9.22426
 C  -23.02134  -12.65023  -9.99357
 H  -23.84987  -12.79775  -9.19935
 H  -23.02130  -13.55273  -10.71981
 H  -23.21925  -11.67770  -10.58669
 H  -21.66997  -12.88740  -8.12906
 H  -20.81675  -13.30366  -9.75414
 H  -19.60823  -11.26021  -9.29082
 H  -21.08683  -10.49668  -10.16131
 H  14.53530  8.18215  9.39355
 H  18.02307  6.80239  12.09859
 H  -18.98905  -5.37157  -11.54725
 H  -18.73473  -4.44791  -7.02313
*
