# ================================================================
# Orca input file made by Matty Jones
# ================================================================
! ZINDO/S 
! NOPOP
! NOMOPRINT
* xyz 0   1
 C  -2.06588  1.79264  -2.28555
 C  -0.86694  2.48888  -2.12525
 C  -0.04384  1.99761  -1.06438
 C  -0.59563  0.90796  -0.38356
 S  -2.05237  0.61384  -1.11965
 H  -0.67611  3.47686  -2.66210
 C  1.35863  2.76470  -0.84875
 C  2.08336  3.12333  -2.35891
 C  3.51417  3.99704  -2.55209
 H  3.66410  4.58929  -1.56476
 H  3.31101  4.76483  -3.39936
 H  2.26249  2.09616  -2.85743
 H  1.31555  3.71407  -2.98525
 H  1.19027  3.76314  -0.28747
 H  2.10253  2.10957  -0.24678
 C  4.89699  3.21802  -2.89435
 C  6.15914  4.31217  -3.18237
 C  6.98674  4.72536  -1.78102
 H  7.60048  5.68851  -1.96656
 H  7.69823  3.85995  -1.49119
 H  6.22798  4.90741  -0.92597
 H  6.89732  3.83104  -3.92351
 H  5.72048  5.27199  -3.64580
 H  4.76139  2.58140  -3.84975
 H  5.20043  2.52779  -2.02116
 C  -0.16883  0.12086  1.00607
 C  -0.72966  -1.06663  1.47853
 C  -0.19451  -1.50819  2.72868
 C  0.79390  -0.66513  3.24599
 S  0.95145  0.56496  2.14487
 H  -1.55774  -1.63322  0.93266
 C  -0.70813  -2.87861  3.41278
 C  -2.36169  -3.30793  3.47698
 C  -2.85171  -4.26035  2.16641
 H  -2.66715  -3.64457  1.20566
 H  -2.15251  -5.18437  2.14719
 H  -2.54331  -3.90400  4.44388
 H  -2.98669  -2.34412  3.48458
 H  -0.45020  -2.88967  4.54487
 H  -0.16795  -3.77447  2.91194
 C  -4.39635  -4.77986  2.18977
 C  -5.23957  -4.43457  0.76777
 C  -6.83075  -4.97937  0.76844
 H  -6.89884  -5.97591  1.35227
 H  -7.17763  -5.14477  -0.32370
 H  -7.50515  -4.18573  1.27302
 H  -4.68578  -4.94442  -0.10531
 H  -5.24174  -3.29364  0.61183
 H  -4.42054  -5.92546  2.34533
 H  -4.96459  -4.27595  3.06194
 H  -2.82503  1.97833  -3.00167
 H  1.33018  -0.78679  4.15219
*
