# ================================================================
# Orca input file made by Matty Jones
# ================================================================
! ZINDO/S 
! NOPOP
! NOMOPRINT
* xyz 0   1
 C  -13.69295  -10.82092  -6.90076
 C  -14.45268  -11.89693  -6.43935
 C  -13.75829  -12.75474  -5.53038
 C  -12.44361  -12.35407  -5.27274
 S  -12.21278  -10.97888  -6.17052
 H  -15.52623  -12.11418  -6.76071
 C  -14.43575  -14.05096  -4.85213
 C  -15.40715  -15.14666  -5.72767
 C  -17.07329  -14.80382  -5.72966
 H  -17.41565  -14.79489  -4.62471
 H  -17.20173  -13.74092  -6.16399
 H  -15.27067  -16.18721  -5.25502
 H  -15.04383  -15.15758  -6.81842
 H  -15.10141  -13.69860  -3.95801
 H  -13.59139  -14.72852  -4.41223
 C  -18.01785  -15.83805  -6.56733
 C  -18.51299  -17.24364  -5.75766
 C  -19.94167  -17.13270  -4.87438
 H  -20.55668  -16.22242  -5.23539
 H  -19.68659  -17.00787  -3.75202
 H  -20.55879  -18.10112  -5.02365
 H  -17.66829  -17.55481  -5.03822
 H  -18.65866  -18.06494  -6.55484
 H  -18.98020  -15.28177  -6.89211
 H  -17.45409  -16.17635  -7.51921
 C  14.00099  10.53305  4.03822
 C  14.76783  11.46593  4.73792
 C  13.99860  12.45197  5.43093
 C  12.61737  12.29692  5.27767
 S  12.42330  10.96669  4.30646
 H  15.90572  11.42336  4.80705
 C  14.69082  13.61759  6.31667
 C  16.08206  14.44228  5.82216
 C  16.57418  15.66015  6.90491
 H  16.26542  15.33133  7.96989
 H  15.99968  16.62502  6.63206
 H  16.93645  13.67494  5.73954
 H  15.88183  14.92519  4.79932
 H  13.91558  14.47987  6.46968
 H  14.97177  13.18168  7.35714
 C  18.17737  15.94642  6.87331
 C  18.75867  16.62591  5.44128
 C  18.76631  18.30144  5.34602
 H  19.58329  18.72451  6.04758
 H  17.73022  18.70990  5.65887
 H  18.99340  18.61486  4.25439
 H  19.84645  16.26270  5.30499
 H  18.11520  16.22250  4.57298
 H  18.74950  14.95724  7.05356
 H  18.44350  16.68173  7.72839
 H  -13.99791  -10.06262  -7.57573
 H  -11.74153  -12.82971  -4.63677
 H  14.35298  9.71897  3.45773
 H  11.85417  12.90276  5.69490
*
