# ================================================================
# Orca input file made by Matty Jones
# ================================================================
! ZINDO/S 
! NOPOP
! NOMOPRINT
* xyz 0   1
 C  18.10007  -3.85815  -5.94163
 C  19.32408  -3.22046  -5.73417
 C  20.23110  -3.95286  -4.90641
 C  19.72071  -5.17505  -4.45799
 S  18.19554  -5.28364  -5.10023
 H  20.00429  -2.64737  -6.53166
 C  21.69552  -3.35276  -4.56575
 C  21.84201  -1.79790  -3.85993
 C  23.37998  -1.06830  -3.64630
 H  23.09513  0.05673  -3.48679
 H  23.90355  -1.14806  -4.67434
 H  21.22787  -1.08502  -4.52261
 H  21.36717  -1.87158  -2.81391
 H  22.25266  -4.07686  -3.84953
 H  22.31570  -3.29871  -5.55366
 C  24.46419  -1.38648  -2.46792
 C  26.05992  -0.96969  -2.91764
 C  26.71395  0.53684  -2.55199
 H  26.71293  0.68298  -1.40495
 H  26.09257  1.36740  -3.06107
 H  27.80507  0.57225  -2.94248
 H  26.75632  -1.74736  -2.42545
 H  26.11651  -1.06665  -4.06671
 H  24.45077  -2.51252  -2.21676
 H  24.20997  -0.78555  -1.51450
 C  -24.66532  -1.39757  5.66526
 C  -24.56580  -0.26272  4.85897
 C  -25.06102  0.93196  5.46871
 C  -25.55406  0.73948  6.76300
 S  -25.35414  -0.87599  7.08038
 H  -24.37527  -0.34218  3.73511
 C  -24.95066  2.28246  4.58514
 C  -23.39023  2.31996  3.84511
 C  -22.84864  3.50871  2.76803
 H  -22.65396  4.46689  3.38210
 H  -23.69969  3.71008  2.01311
 H  -22.64396  2.31486  4.72696
 H  -23.27397  1.34181  3.24837
 H  -25.74417  2.28559  3.74282
 H  -25.07431  3.23381  5.23332
 C  -21.48376  3.10314  1.95723
 C  -20.00649  3.85689  2.29797
 C  -18.98198  3.14393  3.42298
 H  -19.54112  3.01499  4.42669
 H  -18.06007  3.82889  3.57715
 H  -18.63300  2.11281  3.03015
 H  -19.42435  3.91462  1.30048
 H  -20.23902  4.92722  2.65765
 H  -21.67674  3.26142  0.82482
 H  -21.29181  1.96909  2.12597
 H  17.28193  -3.50550  -6.51599
 H  20.20686  -5.88374  -3.83749
 H  -24.36406  -2.38477  5.42383
 H  -25.96876  1.47261  7.40654
*
