# ================================================================
# Orca input file made by Matty Jones
# ================================================================
! ZINDO/S 
! NOPOP
! NOMOPRINT
* xyz 0   1
 C  -14.92885  -1.28048  28.15443
 C  -15.58112  -2.50565  28.00815
 C  -14.98764  -3.57513  28.74860
 C  -13.86105  -3.19252  29.48326
 S  -13.66135  -1.57389  29.18227
 H  -16.68223  -2.52054  27.71580
 C  -15.69448  -5.01586  28.62411
 C  -17.38003  -4.97881  28.78788
 C  -18.04601  -4.72759  27.26157
 H  -19.14279  -4.39013  27.39901
 H  -17.48764  -3.93952  26.63779
 H  -17.75479  -5.97135  29.22755
 H  -17.67276  -4.10756  29.48042
 H  -15.39563  -5.86644  29.34553
 H  -15.45248  -5.42634  27.55348
 C  -17.96850  -6.12709  26.43675
 C  -18.64023  -6.00269  24.90375
 C  -20.26164  -6.43395  24.94507
 H  -20.87064  -5.70038  24.28971
 H  -20.65329  -6.39186  26.03383
 H  -20.37487  -7.51123  24.53685
 H  -18.54692  -4.91553  24.53358
 H  -18.07460  -6.70545  24.18743
 H  -16.86723  -6.45181  26.29777
 H  -18.52019  -6.95738  27.02359
 C  21.50423  5.16900  -28.61576
 C  20.16086  5.36124  -28.28974
 C  19.93373  5.68126  -26.91487
 C  21.10366  5.74203  -26.15141
 S  22.34014  5.40139  -27.20284
 H  19.31108  5.27273  -29.04708
 C  18.57235  5.99143  -26.06293
 C  17.06189  5.22850  -25.66530
 C  15.47119  5.12636  -26.26636
 H  14.79387  5.42607  -25.36671
 H  15.39323  5.97524  -27.05388
 H  17.38144  4.11363  -25.60438
 H  16.88899  5.61326  -24.58208
 H  18.14772  6.98435  -26.55348
 H  18.93217  6.29794  -24.98827
 C  14.81822  3.78389  -26.91052
 C  14.82329  3.70801  -28.58824
 C  13.61304  2.68542  -29.15890
 H  13.63463  1.68806  -28.57458
 H  13.77788  2.48790  -30.28628
 H  12.58708  3.20212  -29.00441
 H  14.65646  4.76201  -29.01823
 H  15.84298  3.29955  -28.93499
 H  15.39865  2.85780  -26.52235
 H  13.71853  3.68938  -26.55752
 H  -15.18894  -0.35711  27.70350
 H  -13.26043  -3.80814  30.10284
 H  21.90549  4.92572  -29.56624
 H  21.18351  5.96014  -25.11717
*
