# ================================================================
# Orca input file made by Matty Jones
# ================================================================
! ZINDO/S 
! NOPOP
! NOMOPRINT
* xyz 0   1
 C  21.87296  -2.47362  -8.82998
 C  23.10462  -1.83429  -8.68114
 C  24.01998  -2.52242  -7.82507
 C  23.50852  -3.71113  -7.29526
 S  21.97229  -3.84628  -7.90530
 H  23.32199  -0.68200  -8.53616
 C  25.50800  -1.97462  -7.50117
 C  25.69568  -0.38726  -6.91055
 C  27.28035  0.19208  -6.65353
 H  27.17754  1.34943  -6.74221
 H  27.90496  -0.16171  -7.55612
 H  25.19572  0.32562  -7.66222
 H  25.14767  -0.33656  -5.89912
 H  26.03627  -2.66703  -6.73082
 H  26.13848  -2.01036  -8.48495
 C  28.08120  -0.08794  -5.26043
 C  29.70196  0.42934  -5.27601
 C  30.03036  2.00041  -4.76858
 H  30.18167  2.67725  -5.69562
 H  30.99786  2.00015  -4.13144
 H  29.14955  2.39957  -4.13518
 H  30.29967  -0.29065  -4.60208
 H  30.08000  0.34193  -6.36229
 H  28.08501  -1.22227  -5.03936
 H  27.55193  0.45871  -4.39071
 C  -22.82287  2.71341  5.09342
 C  -23.69527  2.09425  5.98979
 C  -24.39704  3.00199  6.84288
 C  -24.07718  4.34471  6.61901
 S  -22.95864  4.33821  5.39457
 H  -23.30778  1.13427  6.53410
 C  -25.45670  2.43436  7.92932
 C  -26.60160  1.42247  7.13144
 C  -27.94538  0.46262  7.58062
 H  -28.23459  0.78017  8.65429
 H  -28.81116  0.73687  6.86519
 H  -25.89779  0.64774  6.67282
 H  -27.03355  2.11937  6.31507
 H  -26.04623  3.29527  8.43408
 H  -24.92149  1.80526  8.74367
 C  -27.72082  -1.15569  7.54822
 C  -27.90998  -1.87540  6.01296
 C  -29.40477  -2.46480  5.51539
 H  -29.25952  -3.50537  5.02782
 H  -29.85877  -1.73858  4.73573
 H  -30.11242  -2.55510  6.42414
 H  -27.16766  -2.75686  5.96222
 H  -27.62930  -1.07514  5.23233
 H  -28.49053  -1.66111  8.24696
 H  -26.65915  -1.40828  7.92354
 H  21.04798  -2.14990  -9.41154
 H  23.99984  -4.38480  -6.64075
 H  -22.20400  2.24391  4.37220
 H  -24.46784  5.18979  7.12581
*
