# ================================================================
# Orca input file made by Matty Jones
# ================================================================
! ZINDO/S 
! NOPOP
! NOMOPRINT
* xyz 0   1
 C  20.26834  0.83324  -3.34828
 C  19.86268  -0.50156  -3.30784
 C  20.55185  -1.29206  -2.33603
 C  21.50653  -0.57785  -1.60540
 S  21.44850  0.97230  -2.19200
 H  19.03561  -0.93434  -3.96282
 C  20.35120  -2.86224  -2.00724
 C  18.88949  -3.58835  -1.54942
 C  17.84074  -4.21271  -2.70005
 H  17.46350  -3.33914  -3.35559
 H  18.43131  -4.95388  -3.36159
 H  19.16224  -4.45424  -0.83454
 H  18.30197  -2.78861  -0.95424
 H  21.10974  -3.20800  -1.19043
 H  20.64994  -3.45394  -2.98129
 C  16.57310  -4.97432  -2.01260
 C  15.53774  -5.66519  -3.15072
 C  14.42239  -4.55376  -3.73829
 H  13.43681  -5.10042  -4.00083
 H  14.85493  -4.05349  -4.68873
 H  14.21503  -3.74487  -2.93697
 H  16.16230  -6.07353  -4.02727
 H  14.96626  -6.52924  -2.64636
 H  16.95964  -5.82569  -1.33050
 H  15.96869  -4.23014  -1.36793
 C  -20.68863  -0.16371  0.90246
 C  -19.81005  0.77373  1.44759
 C  -20.43907  1.74242  2.29032
 C  -21.82132  1.56903  2.41124
 S  -22.18731  0.24493  1.48217
 H  -18.68729  0.77576  1.25397
 C  -19.64901  2.94328  3.01578
 C  -18.63428  3.87236  2.04486
 C  -17.97730  5.17132  2.90291
 H  -18.84479  5.66019  3.49739
 H  -17.61008  5.93899  2.11578
 H  -17.78876  3.20940  1.64340
 H  -19.25424  4.29050  1.16851
 H  -20.30610  3.68945  3.60232
 H  -18.94257  2.45330  3.82453
 C  -16.76113  4.83764  3.92567
 C  -15.23292  4.73306  3.22574
 C  -14.83945  3.15029  2.81301
 H  -13.81783  3.14188  2.27014
 H  -15.65125  2.71157  2.11732
 H  -14.77171  2.51486  3.77857
 H  -15.21087  5.37888  2.27269
 H  -14.45378  5.12423  3.97820
 H  -16.97459  3.83500  4.46328
 H  -16.70878  5.67340  4.72811
 H  19.89969  1.59704  -3.98412
 H  22.13560  -0.94943  -0.83742
 H  -20.44844  -0.96745  0.25446
 H  -22.49430  2.16014  2.97806
*
