# ================================================================
# Orca input file made by Matty Jones
# ================================================================
! ZINDO/S 
! NOPOP
! NOMOPRINT
* xyz 0   1
 C  -20.74352  0.12311  0.28054
 C  -19.49412  0.74180  0.21629
 C  -18.51281  0.16722  1.08296
 C  -18.98973  -0.91063  1.83536
 S  -20.57813  -1.09341  1.39491
 H  -19.32049  1.73088  -0.31375
 C  -17.05788  0.85842  1.04248
 C  -16.47936  1.21219  -0.54821
 C  -16.77531  2.66012  -1.44163
 H  -16.87690  3.48486  -0.63369
 H  -15.79483  2.84713  -2.03145
 H  -15.33058  1.14642  -0.46668
 H  -16.86571  0.35943  -1.21997
 H  -17.05944  1.85471  1.63685
 H  -16.27011  0.14306  1.50960
 C  -18.01418  2.85660  -2.49502
 C  -17.95013  4.27594  -3.43709
 C  -17.37715  4.21183  -5.02132
 H  -18.02705  3.47791  -5.63521
 H  -16.27628  3.85969  -5.02106
 H  -17.44618  5.27046  -5.48739
 H  -18.99652  4.74434  -3.45912
 H  -17.20247  4.95045  -2.88580
 H  -18.04684  1.96092  -3.22209
 H  -19.01778  2.92824  -1.93354
 C  23.02472  -1.63478  -0.59650
 C  21.74773  -2.16072  -0.39506
 C  20.90577  -1.35029  0.42871
 C  21.52104  -0.17850  0.88001
 S  23.05284  -0.20643  0.24500
 H  21.38816  -3.14157  -0.85811
 C  19.42407  -1.92560  0.72923
 C  18.00744  -0.98286  0.75991
 C  16.64212  -1.97384  0.98901
 H  15.75576  -1.43572  0.47452
 H  16.84063  -2.96659  0.42819
 H  17.90497  -0.42187  -0.23552
 H  18.01446  -0.25792  1.63833
 H  19.43463  -2.45664  1.77444
 H  19.19039  -2.74447  -0.06933
 C  16.23358  -2.29946  2.52910
 C  14.90134  -3.33747  2.65169
 C  13.41664  -2.54871  2.68342
 H  12.61027  -3.27310  3.08924
 H  13.13629  -2.21820  1.61038
 H  13.48750  -1.62131  3.37140
 H  15.00964  -3.94568  3.62454
 H  14.91229  -4.05243  1.74816
 H  17.12210  -2.80813  3.06694
 H  15.97486  -1.31882  3.08273
 H  -21.61450  0.37735  -0.26751
 H  -18.44920  -1.48964  2.53976
 H  23.81083  -2.05903  -1.16714
 H  21.09714  0.57075  1.49850
*
