# ================================================================
# Orca input file made by Matty Jones
# ================================================================
! ZINDO/S 
! NOPOP
! NOMOPRINT
* xyz 0   1
 C  14.13003  16.67334  2.97005
 C  13.63422  15.47965  2.44358
 C  14.22649  14.30447  3.00254
 C  15.19485  14.57156  3.97530
 S  15.26630  16.22441  4.09097
 H  12.88570  15.41216  1.58269
 C  13.77054  12.82391  2.51979
 C  12.11205  12.33703  2.62084
 C  10.63433  12.33996  1.72108
 H  10.15265  11.32084  2.01802
 H  10.01869  13.17551  2.25156
 H  12.23999  11.19784  2.82331
 H  11.78732  12.84841  3.61038
 H  14.37574  11.99741  3.06651
 H  14.01752  12.72357  1.37987
 C  10.32278  12.52262  0.12732
 C  10.11694  11.08340  -0.75459
 C  8.55772  10.43181  -0.76311
 H  8.47579  9.63735  0.07504
 H  8.35658  9.93261  -1.78799
 H  7.78191  11.26943  -0.58063
 H  10.40037  11.30894  -1.84931
 H  10.83477  10.29317  -0.32510
 H  9.34826  13.13475  0.00048
 H  11.19169  13.10383  -0.36451
 C  -10.76382  -9.05908  -3.40641
 C  -10.68139  -10.19513  -2.59988
 C  -10.55653  -9.91231  -1.20392
 C  -10.54028  -8.54604  -0.90667
 S  -10.67931  -7.77075  -2.36614
 H  -10.26874  -11.17867  -3.04845
 C  -10.48202  -11.24878  -0.30552
 C  -11.84331  -12.20346  -0.90054
 C  -12.63764  -13.71857  -0.74462
 H  -13.77068  -13.50425  -0.68398
 H  -12.28489  -14.20349  0.23923
 H  -11.59790  -12.28187  -2.02487
 H  -12.71632  -11.45657  -0.74706
 H  -10.60944  -11.04888  0.81891
 H  -9.50463  -11.83567  -0.51673
 C  -12.34421  -14.72565  -1.99991
 C  -13.43309  -16.01415  -2.12097
 C  -13.00797  -17.36064  -1.21818
 H  -13.66316  -18.25853  -1.54145
 H  -13.18306  -17.13608  -0.09602
 H  -11.89211  -17.60998  -1.39585
 H  -13.49211  -16.32742  -3.22961
 H  -14.46937  -15.64959  -1.77316
 H  -11.27937  -15.16255  -1.90933
 H  -12.42029  -14.13828  -2.99479
 H  13.84110  17.65908  2.70845
 H  15.76407  13.86543  4.52391
 H  -10.86014  -9.02673  -4.46153
 H  -10.45663  -8.09938  0.05098
*
