# ================================================================
# Orca input file made by Matty Jones
# ================================================================
! ZINDO/S 
! NOPOP
! NOMOPRINT
* xyz 0   1
 C  20.93409  -0.47472  -14.67355
 C  22.11556  0.19480  -14.35141
 C  22.94412  -0.50022  -13.41616
 C  22.41422  -1.72472  -12.99768
 S  20.96878  -1.88083  -13.79564
 H  22.40656  1.21331  -14.77920
 C  24.41651  -0.14971  -12.73634
 C  25.38887  1.12421  -11.97874
 C  26.63296  2.15771  -12.56137
 H  26.21911  2.67672  -13.50406
 H  27.50520  1.45990  -12.86614
 H  25.88596  0.58700  -11.08561
 H  24.58296  1.85090  -11.58649
 H  24.47448  -0.85799  -11.81445
 H  25.19891  -0.51815  -13.53098
 C  27.23588  3.30433  -11.54349
 C  28.28424  3.01483  -10.21684
 C  29.96813  3.02070  -10.35516
 H  30.26854  3.09663  -11.46770
 H  30.38613  2.03868  -9.90422
 H  30.40266  3.92122  -9.77067
 H  28.03548  3.84777  -9.45221
 H  27.97977  1.99606  -9.77119
 H  26.33162  3.87110  -11.09395
 H  27.83291  4.04609  -12.20885
 C  -20.79969  -1.43467  12.12797
 C  -21.88213  -2.10042  12.70503
 C  -22.91271  -1.23313  13.18458
 C  -22.64269  0.12431  12.98518
 S  -21.16385  0.17924  12.23656
 H  -22.40065  -3.12940  12.45195
 C  -24.30717  -1.65820  13.88437
 C  -25.50826  -2.14686  12.77713
 C  -26.27591  -0.70872  12.25196
 H  -26.83412  -0.30678  13.18636
 H  -25.40658  0.01998  12.00833
 H  -25.03588  -2.68587  11.88490
 H  -26.27712  -2.81201  13.30637
 H  -24.74144  -0.81270  14.54512
 H  -24.12399  -2.57513  14.58334
 C  -27.31150  -0.63752  10.99344
 C  -28.98192  -0.67448  11.24629
 C  -29.67998  -2.19403  11.10674
 H  -28.97455  -2.98621  11.56807
 H  -29.85256  -2.43194  9.98669
 H  -30.69440  -2.20161  11.66381
 H  -29.47297  0.01671  10.46322
 H  -29.19875  -0.26788  12.30217
 H  -27.10156  0.34899  10.41746
 H  -27.07048  -1.52223  10.28333
 H  20.17473  -0.15226  -15.33912
 H  22.84600  -2.40975  -12.31364
 H  -19.92849  -1.86919  11.70868
 H  -23.25502  0.94614  13.25584
*
