# ================================================================
# Orca input file made by Matty Jones
# ================================================================
! ZINDO/S 
! NOPOP
! NOMOPRINT
* xyz 0   1
 C  16.67507  -0.50387  -8.20382
 C  17.87459  0.16913  -7.96693
 C  18.79189  -0.54730  -7.13655
 C  18.31429  -1.79229  -6.71561
 S  16.80344  -1.93909  -7.38359
 H  18.08967  1.31829  -7.79459
 C  20.28858  -0.19269  -6.56130
 C  21.73495  0.48234  -7.17600
 C  22.06056  2.12696  -6.92843
 H  22.59626  2.51976  -7.87430
 H  21.05232  2.67415  -6.80954
 H  22.60778  -0.11427  -6.71442
 H  21.72084  0.30703  -8.31475
 H  20.09129  0.50666  -5.63788
 H  20.70801  -1.19516  -6.11302
 C  23.00498  2.43154  -5.62212
 C  22.23260  2.65666  -4.13153
 C  23.26213  3.05808  -2.85600
 H  24.23382  2.43566  -2.93013
 H  22.73064  2.83126  -1.85352
 H  23.51601  4.18568  -2.91360
 H  21.46213  3.50371  -4.25135
 H  21.69387  1.67568  -3.85812
 H  23.74845  1.55569  -5.47885
 H  23.61653  3.39376  -5.82493
 C  -23.02205  -4.77035  7.48093
 C  -22.93013  -3.54812  6.81340
 C  -23.35637  -2.42550  7.58948
 C  -23.78704  -2.76298  8.87632
 S  -23.62013  -4.40944  8.98463
 H  -22.99199  -3.52083  5.65754
 C  -23.23592  -0.99609  6.83622
 C  -21.76159  -1.03907  5.90708
 C  -20.88592  0.00505  4.87490
 H  -21.51729  0.95956  4.73066
 H  -20.78799  -0.53388  3.85473
 H  -20.98534  -1.38560  6.69012
 H  -21.96402  -1.89807  5.15814
 H  -24.12116  -0.83010  6.11174
 H  -23.16447  -0.12278  7.58812
 C  -19.39838  0.39467  5.41458
 C  -18.24602  0.52563  4.17630
 C  -16.67870  0.79423  4.72742
 H  -16.71359  1.35292  5.73976
 H  -16.10171  1.43002  3.95164
 H  -16.14584  -0.22463  4.86553
 H  -18.25199  -0.45560  3.57270
 H  -18.54846  1.40246  3.49412
 H  -19.01260  -0.40747  6.14931
 H  -19.44118  1.41379  5.95826
 H  15.85492  -0.16823  -8.78545
 H  18.81341  -2.49510  -6.09872
 H  -22.76394  -5.72752  7.10570
 H  -24.14520  -2.10436  9.62568
*
