# ================================================================
# Orca input file made by Matty Jones
# ================================================================
! ZINDO/S 
! NOPOP
! NOMOPRINT
* xyz 0   1
 C  -10.11249  10.04537  26.28583
 C  -8.88848  10.68306  26.49329
 C  -7.98146  9.95066  27.32105
 C  -8.49185  8.72847  27.76946
 S  -10.01702  8.61987  27.12722
 H  -8.20827  11.25615  25.69580
 C  -6.51704  10.55076  27.66171
 C  -6.37055  12.10562  28.36752
 C  -4.83258  12.83522  28.58115
 H  -5.11743  13.96024  28.74066
 H  -4.30901  12.75546  27.55311
 H  -6.98469  12.81850  27.70485
 H  -6.84539  12.03194  29.41355
 H  -5.95990  9.82665  28.37793
 H  -5.89686  10.60481  26.67379
 C  -3.74837  12.51704  29.75953
 C  -2.15264  12.93383  29.30981
 C  -1.49862  14.44035  29.67546
 H  -1.49963  14.58650  30.82250
 H  -2.12000  15.27092  29.16638
 H  -0.40749  14.47577  29.28498
 H  -1.45624  12.15616  29.80200
 H  -2.09605  12.83687  28.16075
 H  -3.76179  11.39100  30.01069
 H  -4.00259  13.11797  30.71296
 C  7.02113  -7.74900  -31.40045
 C  6.25323  -8.71536  -30.74901
 C  7.01858  -9.65712  -29.99297
 C  8.39779  -9.43327  -30.04770
 S  8.59494  -8.10067  -31.01503
 H  5.11309  -8.75852  -30.79565
 C  6.41595  -10.90725  -29.13577
 C  5.12271  -10.86099  -28.01071
 C  4.79008  -12.35192  -27.21506
 H  4.60881  -12.05436  -26.10757
 H  5.79287  -12.93221  -27.27032
 H  4.17192  -10.55585  -28.58015
 H  5.37602  -10.08212  -27.20787
 H  7.29933  -11.36608  -28.50711
 H  6.08792  -11.71783  -29.89291
 C  3.60580  -13.39908  -27.62520
 C  3.58846  -14.88596  -26.78783
 C  4.94836  -15.25572  -25.86414
 H  5.88356  -15.24371  -26.54602
 H  4.82306  -16.31211  -25.40690
 H  5.06945  -14.47857  -25.01737
 H  3.44512  -15.72636  -27.56235
 H  2.68418  -14.86787  -26.07139
 H  3.69104  -13.64980  -28.74940
 H  2.57942  -12.90080  -27.43120
 H  -10.93063  10.39802  25.71146
 H  -8.00570  8.01978  28.38997
 H  6.67185  -6.95721  -32.01255
 H  9.15810  -9.99725  -29.57078
*
