# ================================================================
# Orca input file made by Matty Jones
# ================================================================
! ZINDO/S 
! NOPOP
! NOMOPRINT
* xyz 0   1
 C  14.04367  1.10623  -1.93352
 C  15.26768  1.74392  -1.72606
 C  16.17470  1.01152  -0.89831
 C  15.66431  -0.21067  -0.44989
 S  14.13914  -0.31927  -1.09213
 H  15.94789  2.31700  -2.52355
 C  17.63912  1.61162  -0.55765
 C  17.78561  3.16648  0.14817
 C  19.32358  3.89608  0.36180
 H  19.03872  5.02110  0.52131
 H  19.84715  3.81631  -0.66624
 H  17.17146  3.87936  -0.51450
 H  17.31076  3.09280  1.19420
 H  18.19626  0.88751  0.15858
 H  18.25930  1.66567  -1.54556
 C  20.40779  3.57790  1.54018
 C  22.00352  3.99468  1.09046
 C  22.65754  5.50121  1.45611
 H  22.65653  5.64735  2.60315
 H  22.03616  6.33178  0.94703
 H  23.74867  5.53662  1.06562
 H  22.69992  3.21702  1.58265
 H  22.06011  3.89772  -0.05860
 H  20.39437  2.45185  1.79134
 H  20.15357  4.17883  2.49361
 C  -20.50070  -7.58774  0.15847
 C  -19.73517  -6.42080  0.16935
 C  -20.32042  -5.34545  0.90783
 C  -21.55432  -5.66487  1.48298
 S  -21.85204  -7.23885  1.05359
 H  -18.70944  -6.31594  -0.31971
 C  -19.39404  -4.00769  0.87395
 C  -19.81344  -2.38956  0.59236
 C  -18.37165  -1.46197  0.51231
 H  -18.63078  -0.38322  0.82759
 H  -17.60925  -1.90429  1.25538
 H  -20.37403  -2.30883  -0.40573
 H  -20.45479  -1.99966  1.45687
 H  -18.85747  -3.96710  1.91212
 H  -18.54218  -4.18157  0.07955
 C  -17.73658  -1.45861  -0.99671
 C  -16.25225  -0.68500  -1.26704
 C  -16.34283  0.92916  -1.73102
 H  -17.32483  1.11290  -2.31439
 H  -15.43875  1.18245  -2.40906
 H  -16.31870  1.59999  -0.78846
 H  -15.63340  -0.74921  -0.29777
 H  -15.70836  -1.25991  -2.10724
 H  -17.58891  -2.55684  -1.33512
 H  -18.50144  -0.96039  -1.71050
 H  13.22553  1.45887  -2.50789
 H  16.15045  -0.91936  0.17062
 H  -20.26738  -8.50388  -0.32095
 H  -22.17039  -5.03324  2.07044
*
