# ================================================================
# Orca input file made by Matty Jones
# ================================================================
! ZINDO/S 
! NOPOP
! NOMOPRINT
* xyz 0   1
 C  -9.18265  -9.59369  -7.96208
 C  -9.94239  -10.66970  -7.50066
 C  -9.24799  -11.52751  -6.59169
 C  -7.93331  -11.12684  -6.33405
 S  -7.70249  -9.75165  -7.23183
 H  -11.01593  -10.88694  -7.82202
 C  -9.92545  -12.82372  -5.91345
 C  -10.89685  -13.91942  -6.78898
 C  -12.56299  -13.57658  -6.79098
 H  -12.90535  -13.56766  -5.68603
 H  -12.69143  -12.51368  -7.22531
 H  -10.76037  -14.95998  -6.31633
 H  -10.53353  -13.93035  -7.87973
 H  -10.59111  -12.47136  -5.01932
 H  -9.08109  -13.50129  -5.47355
 C  -13.50755  -14.61082  -7.62865
 C  -14.00269  -16.01640  -6.81898
 C  -15.43137  -15.90547  -5.93570
 H  -16.04638  -14.99519  -6.29671
 H  -15.17630  -15.78063  -4.81333
 H  -16.04849  -16.87388  -6.08496
 H  -13.15799  -16.32758  -6.09953
 H  -14.14836  -16.83771  -7.61615
 H  -14.46990  -14.05454  -7.95342
 H  -12.94380  -14.94912  -8.58052
 C  16.08454  13.87919  5.43252
 C  14.74116  14.07143  5.75854
 C  14.51404  14.39145  7.13341
 C  15.68397  14.45222  7.89688
 S  16.92045  14.11158  6.84544
 H  13.89138  13.98292  5.00120
 C  13.15265  14.70162  7.98535
 C  11.64220  13.93869  8.38298
 C  10.05150  13.83655  7.78192
 H  9.37418  14.13626  8.68157
 H  9.97354  14.68543  6.99440
 H  11.96174  12.82382  8.44390
 H  11.46930  14.32345  9.46620
 H  12.72803  15.69454  7.49481
 H  13.51248  15.00813  9.06001
 C  9.39853  12.49408  7.13776
 C  9.40360  12.41820  5.46004
 C  8.19335  11.39561  4.88939
 H  8.21493  10.39825  5.47370
 H  8.35819  11.19809  3.76200
 H  7.16739  11.91231  5.04387
 H  9.23676  13.47220  5.03005
 H  10.42329  12.00974  5.11329
 H  9.97896  11.56799  7.52593
 H  8.29883  12.39957  7.49076
 H  -9.48761  -8.83538  -8.63704
 H  -7.23123  -11.60248  -5.69808
 H  16.48580  13.63591  4.48204
 H  15.76382  14.67033  8.93112
*
