# ================================================================
# Orca input file made by Matty Jones
# ================================================================
! ZINDO/S 
! NOPOP
! NOMOPRINT
* xyz 0   1
 C  18.52866  4.14838  2.69725
 C  17.76892  3.07237  3.15866
 C  18.46331  2.21455  4.06764
 C  19.77800  2.61523  4.32528
 S  20.00882  3.99041  3.42750
 H  16.69538  2.85512  2.83731
 C  17.78585  0.91834  4.74588
 C  16.81446  -0.17736  3.87034
 C  15.14831  0.16548  3.86835
 H  14.80596  0.17440  4.97330
 H  15.01987  1.22838  3.43402
 H  16.95093  -1.21791  4.34299
 H  17.17778  -0.18828  2.77959
 H  17.12019  1.27070  5.64000
 H  18.63022  0.24078  5.18578
 C  14.20376  -0.86875  3.03068
 C  13.70861  -2.27434  3.84035
 C  12.27994  -2.16340  4.72363
 H  11.66493  -1.25312  4.36262
 H  12.53501  -2.03857  5.84599
 H  11.66281  -3.13182  4.57436
 H  14.55332  -2.58551  4.55980
 H  13.56294  -3.09564  3.04318
 H  13.24141  -0.31247  2.70591
 H  14.76751  -1.20705  2.07881
 C  -17.36142  -2.72373  -7.76288
 C  -16.75358  -2.28519  -6.58555
 C  -17.57213  -1.42207  -5.79230
 C  -18.83270  -1.17783  -6.34605
 S  -18.86764  -2.03065  -7.76798
 H  -15.83111  -2.78213  -6.10589
 C  -16.89318  -0.84063  -4.45863
 C  -15.34969  -0.26598  -4.79922
 C  -14.30081  0.32781  -3.62796
 H  -14.41086  1.48135  -3.60945
 H  -13.22168  0.07607  -3.96812
 H  -14.76321  -1.12197  -5.30753
 H  -15.50831  0.58696  -5.56425
 H  -17.55203  0.00184  -3.99873
 H  -16.83341  -1.69544  -3.67019
 C  -14.54481  -0.26586  -2.13899
 C  -15.69543  0.61139  -1.28001
 C  -15.01905  1.95949  -0.53959
 H  -14.25615  1.61893  0.26010
 H  -15.85780  2.58232  -0.04157
 H  -14.48268  2.60148  -1.33929
 H  -16.52600  0.95462  -1.99920
 H  -16.14200  -0.07200  -0.46715
 H  -13.54989  -0.24185  -1.54705
 H  -14.90332  -1.36435  -2.20498
 H  18.22370  4.90668  2.02229
 H  20.48007  2.13958  4.96125
 H  -16.94743  -3.36472  -8.49864
 H  -19.60437  -0.57402  -5.94165
*
