# ================================================================
# Orca input file made by Matty Jones
# ================================================================
! ZINDO/S 
! NOPOP
! NOMOPRINT
* xyz 0   1
 C  -6.85489  7.89503  30.69995
 C  -5.60549  8.51372  30.63569
 C  -4.62417  7.93913  31.50236
 C  -5.10110  6.86128  32.25477
 S  -6.68950  6.67850  31.81431
 H  -5.43185  9.50279  30.10566
 C  -3.16924  8.63033  31.46189
 C  -2.59073  8.98410  29.87120
 C  -2.88667  10.43203  28.97778
 H  -2.98827  11.25677  29.78571
 H  -1.90619  10.61904  28.38796
 H  -1.44195  8.91833  29.95272
 H  -2.97708  8.13135  29.19944
 H  -3.17080  9.62662  32.05626
 H  -2.38148  7.91498  31.92901
 C  -4.12555  10.62852  27.92438
 C  -4.06149  12.04785  26.98231
 C  -3.48851  11.98374  25.39809
 H  -4.13841  11.24983  24.78420
 H  -2.38765  11.63160  25.39835
 H  -3.55754  13.04238  24.93202
 H  -5.10788  12.51626  26.96028
 H  -3.31384  12.72236  27.53361
 H  -4.15821  9.73283  27.19731
 H  -5.12914  10.70016  28.48587
 C  5.59007  -5.66286  -32.24374
 C  4.82217  -6.62921  -31.59229
 C  5.58752  -7.57097  -30.83626
 C  6.96673  -7.34713  -30.89099
 S  7.16388  -6.01453  -31.85832
 H  3.68203  -6.67237  -31.63894
 C  4.98489  -8.82110  -29.97906
 C  3.69165  -8.77484  -28.85400
 C  3.35901  -10.26578  -28.05834
 H  3.17775  -9.96821  -26.95086
 H  4.36180  -10.84606  -28.11361
 H  2.74086  -8.46970  -29.42344
 H  3.94496  -7.99598  -28.05115
 H  5.86827  -9.27994  -29.35040
 H  4.65686  -9.63168  -30.73620
 C  2.17474  -11.31294  -28.46849
 C  2.15739  -12.79981  -27.63112
 C  3.51729  -13.16957  -26.70743
 H  4.45250  -13.15756  -27.38931
 H  3.39199  -14.22597  -26.25019
 H  3.63838  -12.39243  -25.86066
 H  2.01406  -13.64022  -28.40564
 H  1.25312  -12.78173  -26.91468
 H  2.25998  -11.56365  -29.59269
 H  1.14835  -10.81465  -28.27449
 H  -7.72587  8.14926  30.15190
 H  -4.56057  6.28227  32.95917
 H  5.24079  -4.87106  -32.85584
 H  7.72704  -7.91110  -30.41407
*
