# ================================================================
# Orca input file made by Matty Jones
# ================================================================
! ZINDO/S 
! NOPOP
! NOMOPRINT
* xyz 0   1
 C  -13.77380  -3.03753  -4.19031
 C  -14.50360  -4.16930  -3.82370
 C  -13.86772  -4.97759  -2.83043
 C  -12.62956  -4.48157  -2.41061
 S  -12.39010  -3.08863  -3.27825
 H  -15.42993  -4.53530  -4.38520
 C  -14.52077  -6.33944  -2.24272
 C  -15.50916  -7.43878  -3.12052
 C  -17.17481  -7.16329  -2.83138
 H  -17.34801  -7.50631  -1.73669
 H  -17.33968  -6.01985  -2.88515
 H  -15.24650  -8.51730  -2.83655
 H  -15.32314  -7.26236  -4.24163
 H  -15.14678  -6.06111  -1.30324
 H  -13.64173  -7.02733  -1.88536
 C  -18.29225  -7.91447  -3.76113
 C  -18.99278  -9.45459  -3.53779
 C  -18.68214  -10.40554  -2.18815
 H  -19.08660  -9.87520  -1.24306
 H  -17.54417  -10.58257  -2.08702
 H  -19.22188  -11.42369  -2.31676
 H  -18.65986  -10.08035  -4.45343
 H  -20.13775  -9.30846  -3.58824
 H  -19.21658  -7.20269  -3.76825
 H  -17.86462  -7.93824  -4.83989
 C  19.94604  8.82696  1.69995
 C  18.96194  8.23171  2.49060
 C  18.32297  9.12938  3.40174
 C  18.80495  10.44007  3.33019
 S  19.97979  10.41959  2.15983
 H  18.77299  7.10844  2.52210
 C  17.14859  8.66978  4.40888
 C  15.65574  8.22781  3.74521
 C  15.35779  6.71961  3.05574
 H  16.35434  6.47125  2.52633
 H  14.56465  6.93792  2.22803
 H  15.41673  9.02103  2.93902
 H  14.88863  8.33865  4.60773
 H  16.92620  9.51467  5.17772
 H  17.51743  7.74475  5.01834
 C  14.85810  5.36803  3.81122
 C  14.56379  4.14739  2.66140
 C  12.98459  4.01761  2.09201
 H  12.79153  2.92644  1.75591
 H  12.83962  4.72921  1.19075
 H  12.24480  4.30099  2.93399
 H  14.89799  3.13873  3.09721
 H  15.17689  4.40744  1.72495
 H  13.88669  5.56115  4.40018
 H  15.67613  4.98851  4.53200
 H  -14.04661  -2.30068  -4.90180
 H  -11.98002  -4.90683  -1.68891
 H  20.54548  8.35944  0.96123
 H  18.48615  11.27244  3.90387
*
