# ================================================================
# Orca input file made by Matty Jones
# ================================================================
! ZINDO/S 
! NOPOP
! NOMOPRINT
* xyz 0   1
 C  -19.42940  -3.18409  -2.34781
 C  -18.18001  -2.56540  -2.41207
 C  -17.19869  -3.13999  -1.54540
 C  -17.67561  -4.21783  -0.79299
 S  -19.26401  -4.40061  -1.23345
 H  -18.00637  -1.57632  -2.94210
 C  -15.74376  -2.44879  -1.58587
 C  -15.16524  -2.09501  -3.17657
 C  -15.46119  -0.64708  -4.06998
 H  -15.56278  0.17766  -3.26205
 H  -14.48071  -0.46007  -4.65980
 H  -14.01646  -2.16078  -3.09504
 H  -15.55159  -2.94777  -3.84833
 H  -15.74532  -1.45249  -0.99150
 H  -14.95599  -3.16414  -1.11875
 C  -16.70006  -0.45060  -5.12338
 C  -16.63601  0.96874  -6.06545
 C  -16.06303  0.90463  -7.64968
 H  -16.71293  0.17071  -8.26357
 H  -14.96216  0.55248  -7.64941
 H  -16.13206  1.96326  -8.11574
 H  -17.68240  1.43714  -6.08748
 H  -15.88836  1.64324  -5.51415
 H  -16.73272  -1.34629  -5.85045
 H  -17.70366  -0.37896  -4.56189
 C  20.84092  0.98565  2.28601
 C  19.61504  0.46949  1.86328
 C  18.48526  1.00756  2.55490
 C  18.82072  1.95336  3.52867
 S  20.47426  2.07243  3.48332
 H  19.26506  0.24811  0.73670
 C  16.98089  0.52547  2.17592
 C  15.74092  0.10890  3.29480
 C  15.93639  0.04323  4.97674
 H  15.06783  -0.58276  5.41323
 H  16.93653  -0.48258  5.20893
 H  14.87192  0.83802  3.08617
 H  15.40615  -0.95861  2.99463
 H  17.08727  -0.43499  1.51809
 H  16.49923  1.35732  1.50778
 C  15.90904  1.53700  5.61321
 C  14.45574  2.29688  5.98530
 C  13.97419  3.38589  4.78635
 H  12.82088  3.38847  4.69909
 H  14.43196  3.07394  3.76993
 H  14.33943  4.45078  5.05201
 H  13.68072  1.45269  6.06648
 H  14.57557  2.82074  6.99841
 H  16.60027  1.59876  6.53264
 H  16.30928  2.17043  4.73279
 H  -20.30038  -2.92985  -2.89587
 H  -17.13508  -4.79684  -0.08859
 H  21.80341  0.73561  1.91900
 H  18.15709  2.48328  4.16301
*
