# ================================================================
# Orca input file made by Matty Jones
# ================================================================
! ZINDO/S 
! NOPOP
! NOMOPRINT
* xyz 0   1
 C  10.67963  16.25737  -2.66901
 C  11.23425  15.39077  -3.61203
 C  12.37830  14.67261  -3.14334
 C  12.72882  14.97366  -1.82356
 S  11.62039  16.09675  -1.31318
 H  10.94048  15.55135  -4.70213
 C  12.98539  13.66753  -4.26629
 C  11.78101  13.38549  -5.51913
 C  10.40406  12.38203  -5.42628
 H  10.76710  11.30720  -5.65131
 H  10.07032  12.43024  -4.31694
 H  12.44724  12.77880  -6.27294
 H  11.51230  14.34483  -6.08850
 H  13.24752  12.64170  -3.80549
 H  13.91428  14.12828  -4.77512
 C  9.06797  12.66534  -6.34898
 C  8.83119  14.05462  -7.30575
 C  7.35129  14.09254  -8.13071
 H  6.57637  13.44391  -7.56813
 H  7.50029  13.67889  -9.20096
 H  6.97300  15.18483  -8.18769
 H  9.67603  14.10464  -8.08415
 H  8.87558  14.97461  -6.61615
 H  8.96743  11.77649  -7.08771
 H  8.15189  12.64159  -5.63599
 C  -5.44588  -14.25656  5.33511
 C  -6.57346  -14.80493  4.72214
 C  -7.72410  -13.95670  4.75058
 C  -7.50398  -12.73237  5.38923
 S  -5.91958  -12.76333  5.87823
 H  -7.02307  -15.84561  5.19973
 C  -9.07208  -14.50768  4.06290
 C  -10.64705  -14.13427  4.45274
 C  -11.29682  -15.05290  5.69801
 H  -10.96835  -16.15135  5.53833
 H  -10.84452  -14.67238  6.69187
 H  -10.69594  -13.02659  4.75085
 H  -11.29288  -14.29924  3.50643
 H  -9.04860  -15.68467  4.09469
 H  -8.98722  -14.22843  2.92441
 C  -12.92073  -14.97996  5.75990
 C  -13.55797  -13.56939  6.42474
 C  -13.90687  -12.40783  5.25557
 H  -12.93372  -12.09596  4.71458
 H  -14.38158  -11.48492  5.76719
 H  -14.65175  -12.85294  4.48937
 H  -14.52651  -13.82574  6.99160
 H  -12.78059  -13.13632  7.15096
 H  -13.35124  -15.09782  4.69208
 H  -13.30511  -15.86310  6.40570
 H  9.83506  16.88573  -2.79336
 H  13.53434  14.56880  -1.26604
 H  -4.48852  -14.70099  5.43283
 H  -8.20337  -11.94858  5.53110
*
