# ================================================================
# Orca input file made by Matty Jones
# ================================================================
! ZINDO/S 
! NOPOP
! NOMOPRINT
* xyz 0   1
 C  19.34177  -1.04267  27.84541
 C  19.89638  -1.90927  26.90239
 C  21.04043  -2.62743  27.37108
 C  21.39095  -2.32638  28.69086
 S  20.28252  -1.20329  29.20124
 H  19.60261  -1.74869  25.81229
 C  21.64753  -3.63251  26.24813
 C  20.44315  -3.91455  24.99528
 C  19.06619  -4.91801  25.08814
 H  19.42923  -5.99284  24.86311
 H  18.73246  -4.86980  26.19748
 H  21.10937  -4.52124  24.24148
 H  20.17443  -2.95521  24.42592
 H  21.90966  -4.65833  26.70893
 H  22.57642  -3.17176  25.73930
 C  17.73011  -4.63470  24.16544
 C  17.49333  -3.24542  23.20867
 C  16.01343  -3.20750  22.38370
 H  15.23851  -3.85613  22.94629
 H  16.16242  -3.62115  21.31346
 H  15.63514  -2.11521  22.32673
 H  18.33817  -3.19540  22.43026
 H  17.53772  -2.32543  23.89827
 H  17.62957  -5.52355  23.42671
 H  16.81402  -4.65845  24.87843
 C  -21.34464  -0.79008  -26.93667
 C  -20.57779  0.14280  -26.23697
 C  -21.34703  1.12885  -25.54396
 C  -22.72825  0.97379  -25.69722
 S  -22.92233  -0.35644  -26.66843
 H  -19.43990  0.10023  -26.16784
 C  -20.65481  2.29446  -24.65822
 C  -19.26356  3.11916  -25.15273
 C  -18.77144  4.33702  -24.06998
 H  -19.08020  4.00820  -23.00500
 H  -19.34594  5.30189  -24.34283
 H  -18.40917  2.35182  -25.23535
 H  -19.46379  3.60207  -26.17557
 H  -21.43005  3.15674  -24.50521
 H  -20.37385  1.85856  -23.61775
 C  -17.16825  4.62330  -24.10158
 C  -16.58696  5.30278  -25.53361
 C  -16.57931  6.97831  -25.62887
 H  -15.76234  7.40138  -24.92731
 H  -17.61541  7.38677  -25.31602
 H  -16.35222  7.29173  -26.72050
 H  -15.49917  4.93957  -25.66990
 H  -17.23043  4.89937  -26.40191
 H  -16.59612  3.63412  -23.92133
 H  -16.90213  5.35860  -23.24650
 H  18.49720  -0.41431  27.72105
 H  22.19647  -2.73124  29.24838
 H  -20.99264  -1.60416  -27.51716
 H  -23.49146  1.57963  -25.27999
*
