# ================================================================
# Orca input file made by Matty Jones
# ================================================================
! ZINDO/S 
! NOPOP
! NOMOPRINT
* xyz 0   1
 C  22.93650  4.93822  -10.62694
 C  22.25227  3.72561  -10.72345
 C  22.83107  2.66606  -9.95754
 C  23.97812  3.04393  -9.25269
 S  24.21252  4.64655  -9.60920
 H  21.17846  3.70397  -11.10297
 C  22.15321  1.23258  -9.99445
 C  20.47079  1.29436  -9.78521
 C  19.80899  1.48539  -11.32174
 H  18.84230  2.10634  -11.22639
 H  20.55973  2.04051  -12.00096
 H  20.09944  0.32579  -9.29694
 H  20.19434  2.20072  -9.13176
 H  22.50237  0.51606  -9.16581
 H  22.38498  0.71689  -11.02147
 C  19.52287  0.05405  -12.03704
 C  19.06964  0.15073  -13.66022
 C  19.02043  1.69457  -14.33048
 H  18.73812  1.60800  -15.45028
 H  20.05851  2.19628  -14.23634
 H  18.22651  2.32956  -13.77860
 H  19.82539  -0.47192  -14.26979
 H  18.01928  -0.31325  -13.76136
 H  20.47284  -0.60421  -11.97673
 H  18.66705  -0.48200  -11.46970
 C  -17.12290  0.00806  10.09025
 C  -18.10700  -0.58719  10.88090
 C  -18.74598  0.31047  11.79204
 C  -18.26400  1.62117  11.72049
 S  -17.08915  1.60069  10.55013
 H  -18.29595  -1.71047  10.91240
 C  -19.92035  -0.14912  12.79918
 C  -21.41320  -0.59109  12.13551
 C  -21.71115  -2.09929  11.44604
 H  -20.71460  -2.34765  10.91663
 H  -22.50430  -1.88098  10.61833
 H  -21.65221  0.20213  11.32932
 H  -22.18032  -0.48026  12.99803
 H  -20.14275  0.69577  13.56802
 H  -19.55151  -1.07416  13.40865
 C  -22.21084  -3.45088  12.20152
 C  -22.50515  -4.67151  11.05170
 C  -24.08435  -4.80129  10.48231
 H  -24.27741  -5.89246  10.14621
 H  -24.22932  -4.08970  9.58106
 H  -24.82414  -4.51792  11.32429
 H  -22.17095  -5.68017  11.48751
 H  -21.89205  -4.41146  10.11525
 H  -23.18225  -3.25775  12.79048
 H  -21.39281  -3.83040  12.92230
 H  22.69195  5.85279  -11.10376
 H  24.57323  2.43380  -8.62246
 H  -16.52347  -0.45946  9.35153
 H  -18.58280  2.45354  12.29417
*
