# ================================================================
# Orca input file made by Matty Jones
# ================================================================
! ZINDO/S 
! NOPOP
! NOMOPRINT
* xyz 0   1
 C  -23.90168  3.87754  -4.62763
 C  -24.39748  2.68386  -5.15410
 C  -23.80522  1.50867  -4.59514
 C  -22.83686  1.77576  -3.62238
 S  -22.76541  3.42862  -3.50671
 H  -25.14600  2.61637  -6.01500
 C  -24.26116  0.02811  -5.07790
 C  -25.91966  -0.45877  -4.97684
 C  -27.39737  -0.45583  -5.87660
 H  -27.87905  -1.47495  -5.57967
 H  -28.01302  0.37972  -5.34613
 H  -25.79172  -1.59795  -4.77438
 H  -26.24439  0.05262  -3.98731
 H  -23.65596  -0.79838  -4.53117
 H  -24.01419  -0.07222  -6.21781
 C  -27.70893  -0.27318  -7.47036
 C  -27.91476  -1.71239  -8.35227
 C  -29.47399  -2.36398  -8.36080
 H  -29.55592  -3.15845  -7.52264
 H  -29.67513  -2.86318  -9.38568
 H  -30.24980  -1.52637  -8.17832
 H  -27.63134  -1.48685  -9.44700
 H  -27.19694  -2.50263  -7.92279
 H  -28.68345  0.33896  -7.59720
 H  -26.84002  0.30803  -7.96219
 C  23.66039  -3.37299  4.37070
 C  24.53897  -2.43555  4.91583
 C  23.90995  -1.46685  5.75856
 C  22.52770  -1.64025  5.87949
 S  22.16171  -2.96435  4.95042
 H  25.66173  -2.43352  4.72221
 C  24.70001  -0.26600  6.48402
 C  25.71474  0.66308  5.51310
 C  26.37172  1.96204  6.37116
 H  25.50423  2.45091  6.96563
 H  26.73894  2.72972  5.58402
 H  26.56026  0.00012  5.11164
 H  25.09478  1.08122  4.63675
 H  24.04292  0.48017  7.07056
 H  25.40645  -0.75597  7.29278
 C  27.58789  1.62836  7.39392
 C  29.11609  1.52378  6.69398
 C  29.50957  -0.05899  6.28126
 H  30.53119  -0.06740  5.73838
 H  28.69777  -0.49771  5.58557
 H  29.57731  -0.69442  7.24681
 H  29.13815  2.16961  5.74093
 H  29.89524  1.91495  7.44645
 H  27.37443  0.62572  7.93152
 H  27.64024  2.46413  8.19635
 H  -24.19061  4.86328  -4.88923
 H  -22.26763  1.06964  -3.07378
 H  23.90058  -4.17673  3.72270
 H  21.85472  -1.04914  6.44630
*
