# ================================================================
# Orca input file made by Matty Jones
# ================================================================
! ZINDO/S 
! NOPOP
! NOMOPRINT
* xyz 0   1
 C  21.15598  0.01194  1.03496
 C  22.34891  0.25100  0.35112
 C  23.51505  -0.22602  1.02702
 C  23.24155  -0.84488  2.25075
 S  21.59446  -0.77033  2.42956
 H  22.55969  1.36465  -0.00154
 C  24.93069  0.03774  0.26291
 C  24.89434  1.61204  -0.49974
 C  25.85863  2.67358  -1.46189
 H  26.30302  3.47941  -0.77062
 H  26.69723  2.06782  -1.95856
 H  24.06246  1.39818  -1.28433
 H  24.52582  2.30062  0.34721
 H  25.81248  0.04450  1.01261
 H  25.11798  -0.75102  -0.55626
 C  24.88297  3.37332  -2.58445
 C  25.32851  4.75031  -3.47387
 C  26.03407  4.62919  -4.99730
 H  26.20939  5.69842  -5.41101
 H  25.32421  4.05531  -5.70811
 H  27.04506  4.07587  -4.91352
 H  24.35042  5.33381  -3.62882
 H  26.05175  5.35269  -2.81019
 H  24.65629  2.56212  -3.38408
 H  23.88299  3.65017  -2.06525
 C  -19.64839  -1.42361  -0.79387
 C  -20.91567  -1.95209  -0.54371
 C  -21.73666  -1.13059  0.29018
 C  -21.11451  0.05255  0.70056
 S  -19.60264  0.02042  0.01964
 H  -21.27797  -2.95235  -0.95582
 C  -23.21680  -1.69440  0.63961
 C  -24.64740  -0.77759  0.71767
 C  -26.03319  -1.73142  0.99921
 H  -26.89638  -1.21643  0.42209
 H  -25.83086  -2.76098  0.51065
 H  -24.77301  -0.18515  -0.25450
 H  -24.61129  -0.09061  1.62664
 H  -23.16208  -2.21670  1.68959
 H  -23.47296  -2.52814  -0.14131
 C  -26.51099  -1.96951  2.53725
 C  -27.84920  -3.00105  2.67503
 C  -27.42081  -4.61689  2.86588
 H  -26.86314  -4.98082  1.91965
 H  -28.37610  -5.25097  3.02278
 H  -26.73041  -4.72116  3.78892
 H  -28.48629  -2.90388  1.72037
 H  -28.46868  -2.67613  3.58929
 H  -25.64511  -2.42604  3.15052
 H  -26.80904  -0.95635  3.00882
 H  20.17623  0.27502  0.72759
 H  23.94060  -1.27219  2.92330
 H  -18.87766  -1.85454  -1.38028
 H  -21.52356  0.81114  1.31766
*
