# ================================================================
# Orca input file made by Matty Jones
# ================================================================
! ZINDO/S 
! NOPOP
! NOMOPRINT
* xyz 0   1
 C  -17.53132  -5.63532  -14.78064
 C  -16.33180  -4.96232  -14.54376
 C  -15.41449  -5.67875  -13.71337
 C  -15.89210  -6.92375  -13.29243
 S  -17.40295  -7.07054  -13.96041
 H  -16.11671  -3.81316  -14.37141
 C  -13.91780  -5.32415  -13.13812
 C  -12.47143  -4.64912  -13.75282
 C  -12.14583  -3.00449  -13.50526
 H  -11.61013  -2.61169  -14.45112
 H  -13.15407  -2.45731  -13.38637
 H  -11.59861  -5.24572  -13.29125
 H  -12.48555  -4.82443  -14.89158
 H  -14.11510  -4.62480  -12.21471
 H  -13.49838  -6.32661  -12.68984
 C  -11.20140  -2.69991  -12.19895
 C  -11.97378  -2.47480  -10.70836
 C  -10.94425  -2.07338  -9.43282
 H  -9.97257  -2.69580  -9.50695
 H  -11.47575  -2.30020  -8.43035
 H  -10.69038  -0.94578  -9.49042
 H  -12.74425  -1.62774  -10.82818
 H  -12.51252  -3.45577  -10.43494
 H  -10.45794  -3.57577  -12.05568
 H  -10.58986  -1.73770  -12.40175
 C  17.69079  4.54792  11.24030
 C  16.34742  4.74016  11.56633
 C  16.12029  5.06018  12.94120
 C  17.29022  5.12095  13.70466
 S  18.52670  4.78031  12.65322
 H  15.49764  4.65165  10.80899
 C  14.75890  5.37035  13.79313
 C  13.24845  4.60742  14.19077
 C  11.65775  4.50528  13.58971
 H  10.98043  4.80499  14.48936
 H  11.57979  5.35416  12.80218
 H  13.56800  3.49255  14.25169
 H  13.07555  4.99218  15.27399
 H  14.33428  6.36327  13.30259
 H  15.11873  5.67686  14.86780
 C  11.00478  3.16281  12.94555
 C  11.00985  3.08693  11.26783
 C  9.79960  2.06434  10.69717
 H  9.82119  1.06698  11.28149
 H  9.96444  1.86682  9.56979
 H  8.77364  2.58104  10.85166
 H  10.84301  4.14093  10.83783
 H  12.02954  2.67847  10.92108
 H  11.58521  2.23672  13.33372
 H  9.90509  3.06830  13.29855
 H  -18.35147  -5.29969  -15.36228
 H  -15.39297  -7.62655  -12.67555
 H  18.09205  4.30464  10.28983
 H  17.37007  5.33906  14.73890
*
