# ================================================================
# Orca input file made by Matty Jones
# ================================================================
! ZINDO/S 
! NOPOP
! NOMOPRINT
* xyz 0   1
 C  -5.69993  11.61561  28.15809
 C  -6.10240  10.28721  28.30396
 C  -5.39259  9.56996  29.31686
 C  -4.42474  10.33585  29.97413
 S  -4.49715  11.83903  29.27724
 H  -6.91399  9.79824  27.66404
 C  -5.60995  8.02304  29.75521
 C  -7.08755  7.31264  30.18831
 C  -8.01896  6.63198  28.97049
 H  -8.32211  7.47250  28.23653
 H  -7.36516  5.86151  28.40982
 H  -6.85726  6.47759  30.95165
 H  -7.71766  8.13074  30.70427
 H  -5.23514  7.36153  28.86379
 H  -4.93010  7.76378  30.65882
 C  -9.35308  5.89606  29.54735
 C  -10.29993  5.26388  28.30306
 C  -11.31215  6.43928  27.65226
 H  -12.31916  5.95628  27.35093
 H  -10.80405  6.89643  26.71761
 H  -11.50035  7.27219  28.43339
 H  -9.61460  4.85234  27.47554
 H  -10.94808  4.41329  28.73087
 H  -9.04431  5.01685  30.23407
 H  -9.98813  6.63967  30.16078
 C  9.28069  -3.69578  -32.05585
 C  8.51279  -4.66213  -31.40441
 C  9.27814  -5.60389  -30.64837
 C  10.65735  -5.38005  -30.70311
 S  10.85450  -4.04744  -31.67043
 H  7.37265  -4.70529  -31.45105
 C  8.67551  -6.85402  -29.79117
 C  7.38227  -6.80776  -28.66611
 C  7.04964  -8.29870  -27.87046
 H  6.86837  -8.00113  -26.76298
 H  8.05243  -8.87898  -27.92573
 H  6.43148  -6.50262  -29.23555
 H  7.63558  -6.02890  -27.86327
 H  9.55889  -7.31285  -29.16251
 H  8.34748  -7.66460  -30.54832
 C  5.86536  -9.34585  -28.28060
 C  5.84802  -10.83273  -27.44323
 C  7.20792  -11.20249  -26.51954
 H  8.14312  -11.19048  -27.20142
 H  7.08262  -12.25888  -26.06230
 H  7.32901  -10.42535  -25.67277
 H  5.70468  -11.67314  -28.21775
 H  4.94374  -10.81464  -26.72679
 H  5.95060  -9.59657  -29.40480
 H  4.83898  -8.84757  -28.08660
 H  -6.08252  12.33086  27.47572
 H  -3.77982  10.02149  30.75442
 H  8.93141  -2.90398  -32.66795
 H  11.41766  -5.94402  -30.22618
*
