# ================================================================
# Orca input file made by Matty Jones
# ================================================================
! ZINDO/S 
! NOPOP
! NOMOPRINT
* xyz 0   1
 C  23.01450  4.78026  2.75537
 C  22.25476  3.70426  3.21678
 C  22.94915  2.84644  4.12576
 C  24.26384  3.24711  4.38339
 S  24.49466  4.62230  3.48561
 H  21.18122  3.48701  2.89542
 C  22.27170  1.55023  4.80400
 C  21.30030  0.45453  3.92846
 C  19.63416  0.79737  3.92647
 H  19.29180  0.80629  5.03142
 H  19.50572  1.86027  3.49214
 H  21.43678  -0.58603  4.40111
 H  21.66362  0.44361  2.83771
 H  21.60604  1.90259  5.69812
 H  23.11606  0.87266  5.24390
 C  18.68960  -0.23686  3.08880
 C  18.19445  -1.64245  3.89847
 C  16.76578  -1.53152  4.78175
 H  16.15077  -0.62124  4.42074
 H  17.02085  -1.40668  5.90411
 H  16.14866  -2.49993  4.63248
 H  19.03916  -1.95362  4.61792
 H  18.04879  -2.46376  3.10129
 H  17.72725  0.31941  2.76402
 H  19.25335  -0.57517  2.13692
 C  -15.69158  0.00664  -5.53041
 C  -16.84301  -0.75411  -5.32218
 C  -17.88458  -0.05971  -4.63139
 C  -17.55393  1.25601  -4.29243
 S  -16.01196  1.48765  -4.85733
 H  -16.89776  -1.86994  -5.55095
 C  -19.20590  -0.97204  -4.40988
 C  -20.83521  -0.52736  -4.48801
 C  -21.51608  -0.17241  -2.99402
 H  -20.70667  0.28803  -2.31188
 H  -22.36438  0.59378  -3.14934
 H  -20.91863  0.41007  -5.15514
 H  -21.42759  -1.39013  -4.97161
 H  -19.11074  -1.45547  -3.34348
 H  -19.15316  -1.85701  -5.17645
 C  -22.10107  -1.54452  -2.32233
 C  -23.70285  -1.94042  -2.70389
 C  -23.93233  -2.90863  -4.06344
 H  -24.70206  -3.73700  -3.81343
 H  -22.92993  -3.39434  -4.37428
 H  -24.33578  -2.25806  -4.93155
 H  -24.28319  -0.95779  -2.86423
 H  -24.14478  -2.50048  -1.79714
 H  -21.44390  -2.43954  -2.64863
 H  -22.03951  -1.45047  -1.17073
 H  22.70954  5.53857  2.08040
 H  24.96592  2.77147  5.01936
 H  -14.80021  -0.29814  -6.01638
 H  -18.16161  1.95829  -3.78142
*
