# ================================================================
# Orca input file made by Matty Jones
# ================================================================
! ZINDO/S 
! NOPOP
! NOMOPRINT
* xyz 0   1
 C  -8.61908  9.66336  36.42185
 C  -8.06446  8.79675  35.47883
 C  -6.92042  8.07860  35.94752
 C  -6.56989  8.37964  37.26730
 S  -7.67832  9.50274  37.77768
 H  -8.35823  8.95734  34.38873
 C  -6.31332  7.07352  34.82457
 C  -7.51770  6.79147  33.57173
 C  -8.89465  5.78801  33.66458
 H  -8.53162  4.71319  33.43955
 H  -9.22839  5.83623  34.77392
 H  -6.85148  6.18479  32.81792
 H  -7.78641  7.75081  33.00236
 H  -6.05119  6.04769  35.28538
 H  -5.38443  7.53427  34.31574
 C  -10.23074  6.07133  32.74188
 C  -10.46752  7.46060  31.78511
 C  -11.94742  7.49852  30.96015
 H  -12.72234  6.84990  31.52273
 H  -11.79842  7.08487  29.88990
 H  -12.32571  8.59082  30.90317
 H  -9.62268  7.51062  31.00671
 H  -10.42313  8.38059  32.47471
 H  -10.33128  5.18248  32.00315
 H  -11.14682  6.04758  33.45487
 C  5.54535  -9.43900  -31.58355
 C  6.73828  -9.19994  -32.26740
 C  7.90442  -9.67697  -31.59150
 C  7.63091  -10.29583  -30.36777
 S  5.98383  -10.22127  -30.18896
 H  6.94905  -8.08630  -32.62005
 C  9.32006  -9.41321  -32.35560
 C  9.28370  -7.83890  -33.11826
 C  10.24799  -6.77736  -34.08040
 H  10.69239  -5.97154  -33.38914
 H  11.08660  -7.38312  -34.57707
 H  8.45183  -8.05277  -33.90285
 H  8.91519  -7.15032  -32.27130
 H  10.20184  -9.40644  -31.60590
 H  9.50735  -10.20197  -33.17478
 C  9.27234  -6.07762  -35.20296
 C  9.71788  -4.70064  -36.09238
 C  10.42343  -4.82175  -37.61581
 H  10.59876  -3.75253  -38.02952
 H  9.71357  -5.39563  -38.32662
 H  11.43443  -5.37508  -37.53203
 H  8.73979  -4.11713  -36.24734
 H  10.44112  -4.09825  -35.42870
 H  9.04566  -6.88883  -36.00260
 H  8.27236  -5.80077  -34.68376
 H  -9.46365  10.29172  36.29750
 H  -5.76437  7.97479  37.82482
 H  4.56560  -9.17593  -31.89093
 H  8.32997  -10.72314  -29.69521
*
