# ================================================================
# Orca input file made by Matty Jones
# ================================================================
! ZINDO/S 
! NOPOP
! NOMOPRINT
* xyz 0   1
 C  -17.94098  -12.73606  -6.31398
 C  -16.74805  -12.49700  -6.99783
 C  -15.58191  -12.97402  -6.32193
 C  -15.85541  -13.59288  -5.09820
 S  -17.50250  -13.51833  -4.91939
 H  -16.53727  -11.38335  -7.35048
 C  -14.16627  -12.71026  -7.08603
 C  -14.20262  -11.13596  -7.84869
 C  -13.23833  -10.07442  -8.81083
 H  -12.79394  -9.26859  -8.11957
 H  -12.39973  -10.68018  -9.30750
 H  -15.03450  -11.34982  -8.63328
 H  -14.57114  -10.44738  -7.00173
 H  -13.28448  -12.70350  -6.33633
 H  -13.97898  -13.49902  -7.90521
 C  -14.21399  -9.37468  -9.93339
 C  -13.76845  -7.99769  -10.82281
 C  -13.06289  -8.11881  -12.34624
 H  -12.88757  -7.04958  -12.75995
 H  -13.77275  -8.69269  -13.05705
 H  -12.05190  -8.67213  -12.26246
 H  -14.74654  -7.41419  -10.97777
 H  -13.04521  -7.39531  -10.15913
 H  -14.44067  -10.18588  -10.73303
 H  -15.21396  -9.09783  -9.41419
 C  12.39782  6.61889  6.90935
 C  13.16467  7.55177  7.60905
 C  12.39543  8.53782  8.30205
 C  11.01420  8.38277  8.14880
 S  10.82013  7.05253  7.17759
 H  14.30255  7.50920  7.67817
 C  13.08765  9.70343  9.18779
 C  14.47889  10.52813  8.69328
 C  14.97101  11.74600  9.77604
 H  14.66225  11.41717  10.84102
 H  14.39651  12.71086  9.50319
 H  15.33328  9.76079  8.61066
 H  14.27866  11.01104  7.67044
 H  12.31241  10.56571  9.34080
 H  13.36861  9.26753  10.22826
 C  16.57420  12.03227  9.74443
 C  17.15550  12.71175  8.31241
 C  17.16314  14.38729  8.21715
 H  17.98012  14.81035  8.91870
 H  16.12705  14.79574  8.52999
 H  17.39024  14.70070  7.12552
 H  18.24328  12.34854  8.17612
 H  16.51203  12.30834  7.44410
 H  17.14633  11.04309  9.92468
 H  16.84033  12.76757  10.59952
 H  -18.92073  -12.47298  -6.62136
 H  -15.15636  -14.02019  -4.42564
 H  12.74981  5.80481  6.32886
 H  10.25100  8.98860  8.56602
*
