# ================================================================
# Orca input file made by Matty Jones
# ================================================================
! ZINDO/S 
! NOPOP
! NOMOPRINT
* xyz 0   1
 C  -12.58015  -33.40300  -11.56424
 C  -11.39868  -32.73349  -11.24210
 C  -10.57012  -33.42851  -10.30684
 C  -11.10002  -34.65301  -9.88836
 S  -12.54547  -34.80911  -10.68632
 H  -11.10768  -31.71498  -11.66988
 C  -9.09774  -33.07799  -9.62702
 C  -8.12538  -31.80407  -8.86943
 C  -6.88128  -30.77057  -9.45205
 H  -7.29513  -30.25156  -10.39475
 H  -6.00904  -31.46839  -9.75682
 H  -7.62828  -32.34128  -7.97630
 H  -8.93129  -31.07738  -8.47717
 H  -9.03976  -33.78627  -8.70513
 H  -8.31534  -33.44643  -10.42166
 C  -6.27836  -29.62395  -8.43418
 C  -5.23000  -29.91345  -7.10752
 C  -3.54611  -29.90758  -7.24585
 H  -3.24571  -29.83166  -8.35839
 H  -3.12811  -30.88961  -6.79491
 H  -3.11158  -29.00706  -6.66136
 H  -5.47876  -29.08052  -6.34289
 H  -5.53447  -30.93223  -6.66188
 H  -7.18263  -29.05719  -7.98463
 H  -5.68133  -28.88219  -9.09953
 C  3.09694  30.26775  8.83133
 C  4.29589  30.96398  8.99163
 C  5.11899  30.47271  10.05250
 C  4.56720  29.38306  10.73332
 S  3.11046  29.08894  9.99723
 H  4.48672  31.95197  8.45478
 C  6.52145  31.23981  10.26813
 C  7.24619  31.59843  8.75797
 C  8.67699  32.47215  8.56479
 H  8.82692  33.06439  9.55212
 H  8.47383  33.23993  7.71752
 H  7.42531  30.57126  8.25945
 H  6.47838  32.18917  8.13163
 H  6.35309  32.23825  10.82941
 H  7.26535  30.58467  10.87010
 C  10.05982  31.69312  8.22253
 C  11.32197  32.78728  7.93451
 C  12.14957  33.20046  9.33586
 H  12.76331  34.16362  9.15032
 H  12.86105  32.33505  9.62569
 H  11.39080  33.38251  10.19091
 H  12.06014  32.30614  7.19337
 H  10.88331  33.74709  7.47108
 H  9.92422  31.05650  7.26713
 H  10.36326  31.00290  9.09572
 H  -13.33952  -33.08055  -12.22981
 H  -10.66824  -35.33804  -9.20433
 H  2.33780  30.45343  8.11521
 H  4.99122  28.85551  11.54909
*
