# ================================================================
# Orca input file made by Matty Jones
# ================================================================
! ZINDO/S 
! NOPOP
! NOMOPRINT
* xyz 0   1
 C  -2.09333  2.70888  -1.06942
 C  -0.80200  3.16078  -1.34538
 C  0.23236  2.36465  -0.76182
 C  -0.24462  1.27862  -0.02132
 S  -1.89777  1.35942  -0.12612
 H  -0.40172  4.25489  -1.43297
 C  1.83444  2.54340  -0.83786
 C  2.68433  3.87318  -0.16120
 C  3.09950  3.45965  1.45202
 H  2.09851  3.40303  2.02994
 H  3.56104  2.39755  1.41816
 H  3.65361  4.04021  -0.74994
 H  2.03372  4.81462  -0.16325
 H  2.35907  1.60459  -0.38338
 H  2.12697  2.58564  -1.97150
 C  4.12381  4.42628  2.27240
 C  3.41834  5.70551  3.11451
 C  3.28553  7.08655  2.16753
 H  3.12291  8.00645  2.85059
 H  2.38561  6.96989  1.44944
 H  4.25577  7.22791  1.55288
 H  2.36794  5.39016  3.46487
 H  4.07480  5.94910  4.02967
 H  4.69050  3.78692  3.05723
 H  4.90196  4.86719  1.53841
 C  0.62648  0.07421  1.46337
 C  0.19183  -0.79439  0.46111
 C  0.40163  -2.17763  0.75585
 C  1.00500  -2.40243  1.99712
 S  1.24377  -0.89905  2.65535
 H  0.43062  -0.66365  -0.69823
 C  -0.07520  -3.21548  -0.39261
 C  -1.11186  -4.57931  -0.33284
 C  -2.75349  -4.20799  -0.63262
 H  -3.12949  -3.68860  0.33300
 H  -2.75410  -3.42636  -1.48823
 H  -0.76445  -5.32921  -1.13010
 H  -1.03287  -5.04399  0.71436
 H  0.91146  -3.67900  -0.83018
 H  -0.54697  -2.58407  -1.26155
 C  -3.83530  -5.37398  -1.02655
 C  -4.10521  -5.57290  -2.69607
 C  -5.28852  -6.69332  -3.13115
 H  -6.33539  -6.22723  -2.97010
 H  -5.17882  -7.64237  -2.47942
 H  -5.15745  -6.97064  -4.24753
 H  -4.41592  -4.55043  -3.12650
 H  -3.11144  -5.90820  -3.17182
 H  -3.47789  -6.39292  -0.61791
 H  -4.85818  -5.11619  -0.55316
 H  -3.00653  3.13791  -1.39437
 H  1.25700  -3.33787  2.42728
*
