# ================================================================
# Orca input file made by Matty Jones
# ================================================================
! ZINDO/S 
! NOPOP
! NOMOPRINT
* xyz 0   1
 C  17.05534  5.88544  -6.37038
 C  18.25486  6.55844  -6.13350
 C  19.17217  5.84201  -5.30312
 C  18.69457  4.59701  -4.88217
 S  17.18371  4.45022  -5.55016
 H  18.46995  7.70760  -5.96116
 C  20.66886  6.19662  -4.72786
 C  22.11523  6.87165  -5.34257
 C  22.44083  8.51627  -5.09500
 H  22.97653  8.90907  -6.04087
 H  21.43260  9.06346  -4.97611
 H  22.98805  6.27504  -4.88099
 H  22.10112  6.69634  -6.48132
 H  20.47156  6.89597  -3.80445
 H  21.08828  5.19415  -4.27959
 C  23.38526  8.82085  -3.78869
 C  22.61288  9.04596  -2.29810
 C  23.64241  9.44739  -1.02256
 H  24.61409  8.82497  -1.09669
 H  23.11091  9.22056  -0.02009
 H  23.89628  10.57499  -1.08016
 H  21.84241  9.89302  -2.41792
 H  22.07414  8.06499  -2.02469
 H  24.12872  7.94500  -3.64542
 H  23.99680  9.78307  -3.99150
 C  -16.43897  -6.84072  2.14279
 C  -17.70625  -7.36921  2.39295
 C  -18.52724  -6.54770  3.22684
 C  -17.90509  -5.36456  3.63722
 S  -16.39322  -5.39670  2.95630
 H  -18.06855  -8.36946  1.98084
 C  -20.00738  -7.11152  3.57627
 C  -21.43798  -6.19471  3.65433
 C  -22.82377  -7.14853  3.93587
 H  -23.68696  -6.63354  3.35875
 H  -22.62144  -8.17810  3.44731
 H  -21.56359  -5.60227  2.68217
 H  -21.40187  -5.50772  4.56330
 H  -19.95266  -7.63382  4.62626
 H  -20.26354  -7.94525  2.79536
 C  -23.30157  -7.38663  5.47391
 C  -24.63978  -8.41816  5.61169
 C  -24.21139  -10.03401  5.80254
 H  -23.65372  -10.39793  4.85631
 H  -25.16668  -10.66808  5.95944
 H  -23.52099  -10.13828  6.72558
 H  -25.27686  -8.32100  4.65703
 H  -25.25926  -8.09325  6.52595
 H  -22.43569  -7.84316  6.08719
 H  -23.59962  -6.37346  5.94548
 H  16.23519  6.22108  -6.95202
 H  19.19369  3.89421  -4.26529
 H  -15.66824  -7.27165  1.55638
 H  -18.31414  -4.60597  4.25433
*
