# ================================================================
# Orca input file made by Matty Jones
# ================================================================
! ZINDO/S 
! NOPOP
! NOMOPRINT
* xyz 0   1
 C  -21.18967  7.18647  -3.53659
 C  -21.68548  5.99278  -4.06306
 C  -21.09322  4.81760  -3.50410
 C  -20.12485  5.08469  -2.53134
 S  -20.05341  6.73754  -2.41566
 H  -22.43400  5.92529  -4.92395
 C  -21.54916  3.33704  -3.98685
 C  -23.20765  2.85015  -3.88580
 C  -24.68537  2.85309  -4.78556
 H  -25.16705  1.83397  -4.48862
 H  -25.30102  3.68864  -4.25508
 H  -23.07971  1.71097  -3.68333
 H  -23.53238  3.36154  -2.89626
 H  -20.94396  2.51054  -3.44013
 H  -21.30218  3.23670  -5.12677
 C  -24.99692  3.03574  -6.37932
 C  -25.20276  1.59653  -7.26123
 C  -26.76198  0.94494  -7.26975
 H  -26.84391  0.15047  -6.43160
 H  -26.96313  0.44574  -8.29463
 H  -27.53779  1.78255  -7.08727
 H  -24.91934  1.82207  -8.35595
 H  -24.48494  0.80629  -6.83174
 H  -25.97144  3.64788  -6.50616
 H  -24.12801  3.61695  -6.87115
 C  28.30326  -2.77152  2.96355
 C  27.03597  -3.30000  3.21370
 C  26.21498  -2.47850  4.04760
 C  26.83714  -1.29536  4.45798
 S  28.34900  -1.32749  3.77706
 H  26.67368  -4.30026  2.80160
 C  24.73484  -3.04231  4.39702
 C  23.30424  -2.12550  4.47508
 C  21.91845  -3.07933  4.75663
 H  21.05526  -2.56434  4.17951
 H  22.12078  -4.10890  4.26807
 H  23.17863  -1.53307  3.50292
 H  23.34035  -1.43852  5.38405
 H  24.78956  -3.56461  5.44701
 H  24.47868  -3.87605  3.61611
 C  21.44066  -3.31743  6.29466
 C  20.10245  -4.34896  6.43245
 C  20.53083  -5.96480  6.62330
 H  21.08850  -6.32873  5.67707
 H  19.57555  -6.59888  6.78020
 H  21.22123  -6.06907  7.54634
 H  19.46536  -4.25179  5.47779
 H  19.48296  -4.02405  7.34671
 H  22.30653  -3.77395  6.90794
 H  21.14260  -2.30426  6.76624
 H  -21.47860  8.17220  -3.79819
 H  -19.55563  4.37856  -1.98273
 H  29.07398  -3.20245  2.37714
 H  26.42809  -0.53677  5.07508
*
