# ================================================================
# Orca input file made by Matty Jones
# ================================================================
! ZINDO/S 
! NOPOP
! NOMOPRINT
* xyz 0   1
 C  -8.86586  17.90311  24.50909
 C  -9.51813  16.67794  24.36282
 C  -8.92465  15.60846  25.10326
 C  -7.79806  15.99108  25.83793
 S  -7.59836  17.60970  25.53693
 H  -10.61924  16.66305  24.07046
 C  -9.63149  14.16774  24.97877
 C  -11.31704  14.20479  25.14254
 C  -11.98302  14.45601  23.61623
 H  -13.07980  14.79347  23.75367
 H  -11.42465  15.24408  22.99245
 H  -11.69181  13.21224  25.58221
 H  -11.60977  15.07604  25.83508
 H  -9.33264  13.31715  25.70019
 H  -9.38949  13.75726  23.90814
 C  -11.90551  13.05651  22.79141
 C  -12.57724  13.18090  21.25842
 C  -14.19865  12.74964  21.29973
 H  -14.80765  13.48321  20.64437
 H  -14.59030  12.79173  22.38850
 H  -14.31188  11.67237  20.89152
 H  -12.48393  14.26807  20.88824
 H  -12.01162  12.47815  20.54210
 H  -10.80424  12.73179  22.65243
 H  -12.45720  12.22621  23.37825
 C  12.78077  -10.38767  -26.56794
 C  11.99995  -11.31670  -25.87865
 C  12.75378  -12.25287  -25.10431
 C  14.13682  -12.06209  -25.18256
 S  14.35118  -10.76344  -26.19149
 H  10.85817  -11.31890  -25.89229
 C  12.13274  -13.47238  -24.21798
 C  10.87566  -13.41281  -23.04460
 C  10.53869  -14.91197  -22.25725
 H  10.46340  -14.64141  -21.13222
 H  11.49888  -15.54401  -22.41383
 H  9.91382  -13.08174  -23.57667
 H  11.17029  -12.65216  -22.23891
 H  13.01732  -13.96257  -23.62675
 H  11.73473  -14.27723  -24.97187
 C  9.27024  -15.88615  -22.60338
 C  9.21576  -17.37902  -21.77991
 C  9.82478  -18.68570  -22.65430
 H  10.94779  -18.51692  -22.86980
 H  9.24391  -18.77203  -23.65258
 H  9.68465  -19.65780  -22.04232
 H  9.83865  -17.27781  -20.81566
 H  8.11993  -17.60422  -21.50856
 H  9.25872  -16.11787  -23.73395
 H  8.29312  -15.33174  -22.32522
 H  -9.12595  18.82649  24.05817
 H  -7.19745  15.37546  26.45750
 H  12.44138  -9.60656  -27.19904
 H  14.89044  -12.62886  -24.69837
*
