# ================================================================
# Orca input file made by Matty Jones
# ================================================================
! ZINDO/S 
! NOPOP
! NOMOPRINT
* xyz 0   1
 C  19.13598  4.00672  -3.98585
 C  18.70134  3.13813  -4.98811
 C  18.91114  1.75489  -4.69337
 C  19.51450  1.53009  -3.45210
 S  19.75328  3.03347  -2.79387
 H  18.94013  3.26887  -6.14745
 C  18.43431  0.71704  -5.84182
 C  17.39765  -0.64679  -5.78206
 C  15.75601  -0.27548  -6.08184
 H  15.38002  0.24391  -5.11622
 H  15.75540  0.50616  -6.93745
 H  17.74506  -1.39669  -6.57932
 H  17.47664  -1.11147  -4.73486
 H  19.42097  0.25352  -6.27940
 H  17.96254  1.34845  -6.71076
 C  14.67420  -1.44146  -6.47577
 C  14.40429  -1.64038  -8.14529
 C  13.22098  -2.76080  -8.58037
 H  12.17412  -2.29471  -8.41931
 H  13.33069  -3.70986  -7.92864
 H  13.35206  -3.03812  -9.69674
 H  14.09359  -0.61791  -8.57572
 H  15.39807  -1.97568  -8.62104
 H  15.03161  -2.46040  -6.06713
 H  13.65132  -1.18368  -6.00238
 C  -19.11850  -3.56558  4.55097
 C  -18.23269  -2.58507  5.00021
 C  -18.81892  -1.63243  5.89073
 C  -20.17447  -1.86184  6.14596
 S  -20.57078  -3.21230  5.26871
 H  -17.13165  -2.54473  4.71456
 C  -17.97206  -0.39467  6.50231
 C  -17.04131  0.51872  5.43972
 C  -16.35893  1.78765  6.32258
 H  -16.30532  1.48606  7.43494
 H  -17.10559  2.67442  6.23848
 H  -16.21954  -0.13522  4.97374
 H  -17.72450  0.94759  4.61933
 H  -18.55175  0.40714  7.08918
 H  -17.21942  -0.85947  7.26860
 C  -14.91793  2.27381  5.76320
 C  -13.60257  1.51551  6.51298
 C  -13.96051  0.48312  7.79710
 H  -14.44115  1.08924  8.65732
 H  -12.97982  -0.00413  8.17448
 H  -14.68747  -0.34256  7.44106
 H  -13.05386  0.89423  5.71178
 H  -12.90069  2.33984  6.90873
 H  -14.80758  3.41347  5.93047
 H  -14.84604  2.05837  4.62841
 H  19.08269  5.06538  -3.98654
 H  19.76651  0.59465  -3.02194
 H  -18.90734  -4.36711  3.89024
 H  -20.81470  -1.29191  6.76956
*
