# ================================================================
# Orca input file made by Matty Jones
# ================================================================
! ZINDO/S 
! NOPOP
! NOMOPRINT
* xyz 0   1
 C  -11.88342  -27.92343  -17.75076
 C  -10.72537  -27.27086  -17.32533
 C  -9.90589  -28.04802  -16.44854
 C  -10.41944  -29.32066  -16.18028
 S  -11.84042  -29.41603  -17.03008
 H  -10.43950  -26.20891  -17.63111
 C  -8.46664  -27.71595  -15.70325
 C  -7.59683  -26.49473  -14.77273
 C  -6.47762  -25.25961  -15.19151
 H  -7.03404  -24.25207  -15.15136
 H  -6.13059  -25.46800  -16.27177
 H  -7.01139  -27.14209  -14.01399
 H  -8.44370  -25.94044  -14.22200
 H  -8.31689  -28.55968  -14.92304
 H  -7.67979  -27.87641  -16.54881
 C  -5.15197  -25.19205  -14.21382
 C  -4.94803  -23.98723  -13.02419
 C  -3.97449  -22.69003  -13.49493
 H  -4.60400  -21.71975  -13.51061
 H  -3.54238  -22.88842  -14.54961
 H  -3.10377  -22.57373  -12.73964
 H  -5.98728  -23.57508  -12.75188
 H  -4.46870  -24.47308  -12.09645
 H  -4.21494  -25.12719  -14.89220
 H  -5.08664  -26.18907  -13.62430
 C  8.88455  30.48732  12.67295
 C  8.58478  29.12497  12.62775
 C  8.88066  28.42161  13.83688
 C  9.41677  29.23266  14.84192
 S  9.49538  30.75591  14.19079
 H  8.15286  28.59542  11.70084
 C  8.57392  26.83516  13.92944
 C  8.22440  25.94338  15.33820
 C  6.69098  25.76512  16.03697
 H  6.83531  25.65937  17.17939
 H  6.08809  26.72617  15.82421
 H  8.48332  24.84996  14.99854
 H  8.96062  26.18263  16.16129
 H  9.50238  26.28049  13.47113
 H  7.66622  26.60178  13.23219
 C  5.89959  24.46505  15.45999
 C  6.28296  22.98394  16.18870
 C  5.29840  22.50295  17.46469
 H  5.82810  22.73259  18.46753
 H  5.10400  21.36388  17.38280
 H  4.29100  23.06941  17.41715
 H  7.36435  23.05467  16.58316
 H  6.22890  22.17095  15.37260
 H  4.76147  24.62744  15.59939
 H  6.11625  24.35628  14.32883
 H  -12.63248  -27.54467  -18.39810
 H  -9.99036  -30.06796  -15.56301
 H  8.75006  31.20001  11.89992
 H  9.71126  28.93600  15.81602
*
