# ================================================================
# Orca input file made by Matty Jones
# ================================================================
! ZINDO/S 
! NOPOP
! NOMOPRINT
* xyz 0   1
 C  -5.54333  11.80499  28.28199
 C  -5.94899  10.47019  28.32242
 C  -5.25981  9.67969  29.29423
 C  -4.30513  10.39390  30.02486
 S  -4.36317  11.94405  29.43827
 H  -6.77606  10.03741  27.66744
 C  -5.46047  8.10951  29.62303
 C  -6.92218  7.38340  30.08085
 C  -7.97093  6.75904  28.93022
 H  -8.34817  7.63261  28.27468
 H  -7.38035  6.01787  28.26867
 H  -6.64942  6.51751  30.79572
 H  -7.50970  8.18314  30.67603
 H  -4.70192  7.76375  30.43983
 H  -5.16173  7.51781  28.64898
 C  -9.23857  5.99743  29.61767
 C  -10.27392  5.30656  28.47955
 C  -11.38927  6.41799  27.89197
 H  -12.37486  5.87133  27.62943
 H  -10.95674  6.91826  26.94153
 H  -11.59664  7.22688  28.69330
 H  -9.64937  4.89822  27.60300
 H  -10.84541  4.44251  28.98391
 H  -8.85202  5.14606  30.29976
 H  -9.84298  6.74161  30.26234
 C  9.36053  -3.73027  -31.95417
 C  8.57971  -4.65930  -31.26488
 C  9.33354  -5.59547  -30.49054
 C  10.71658  -5.40469  -30.56879
 S  10.93094  -4.10604  -31.57773
 H  7.43794  -4.66150  -31.27852
 C  8.71251  -6.81498  -29.60421
 C  7.45542  -6.75541  -28.43084
 C  7.11845  -8.25457  -27.64348
 H  7.04316  -7.98401  -26.51845
 H  8.07864  -8.88661  -27.80006
 H  6.49358  -6.42434  -28.96290
 H  7.75005  -5.99476  -27.62515
 H  9.59708  -7.30517  -29.01298
 H  8.31449  -7.61983  -30.35810
 C  5.85000  -9.22875  -27.98961
 C  5.79553  -10.72162  -27.16615
 C  6.40455  -12.02830  -28.04053
 H  7.52755  -11.85952  -28.25603
 H  5.82367  -12.11463  -29.03882
 H  6.26442  -13.00040  -27.42855
 H  6.41842  -10.62041  -26.20189
 H  4.69969  -10.94682  -26.89479
 H  5.83849  -9.46047  -29.12018
 H  4.87288  -8.67434  -27.71145
 H  -5.91198  12.56879  27.64614
 H  -3.67606  10.02232  30.79284
 H  9.02115  -2.94916  -32.58527
 H  11.47021  -5.97146  -30.08461
*
