# ================================================================
# Orca input file made by Matty Jones
# ================================================================
! ZINDO/S 
! NOPOP
! NOMOPRINT
* xyz 0   1
 C  -11.35363  -7.45318  -5.22826
 C  -12.11336  -8.52919  -4.76684
 C  -11.41897  -9.38700  -3.85787
 C  -10.10428  -8.98633  -3.60023
 S  -9.87346  -7.61114  -4.49801
 H  -13.18690  -8.74643  -5.08820
 C  -12.09643  -10.68322  -3.17962
 C  -13.06783  -11.77891  -4.05516
 C  -14.73397  -11.43607  -4.05716
 H  -15.07633  -11.42715  -2.95220
 H  -14.86241  -10.37317  -4.49149
 H  -12.93135  -12.81947  -3.58251
 H  -12.70451  -11.78984  -5.14591
 H  -12.76209  -10.33085  -2.28550
 H  -11.25207  -11.36078  -2.73973
 C  -15.67853  -12.47031  -4.89483
 C  -16.17367  -13.87589  -4.08516
 C  -17.60235  -13.76496  -3.20188
 H  -18.21735  -12.85468  -3.56288
 H  -17.34727  -13.64012  -2.07951
 H  -18.21947  -14.73338  -3.35114
 H  -15.32897  -14.18707  -3.36571
 H  -16.31934  -14.69720  -4.88233
 H  -16.64088  -11.91403  -5.21960
 H  -15.11477  -12.80861  -5.84670
 C  18.72162  11.10494  3.97134
 C  17.63918  10.43919  4.54840
 C  16.60860  11.30648  5.02795
 C  16.87862  12.66392  4.82855
 S  18.35746  12.71885  4.07993
 H  17.12066  9.41021  4.29532
 C  15.21414  10.88141  5.72775
 C  14.01305  10.39275  4.62050
 C  13.24540  11.83089  4.09533
 H  12.68719  12.23282  5.02973
 H  14.11473  12.55959  3.85170
 H  14.48543  9.85374  3.72828
 H  13.24419  9.72760  5.14974
 H  14.77987  11.72691  6.38849
 H  15.39732  9.96448  6.42671
 C  12.20981  11.90209  2.83681
 C  10.53939  11.86513  3.08966
 C  9.84133  10.34558  2.95011
 H  10.54676  9.55340  3.41144
 H  9.66875  10.10767  1.83006
 H  8.82691  10.33800  3.50718
 H  10.04834  12.55632  2.30659
 H  10.32256  12.27173  4.14554
 H  12.41975  12.88860  2.26083
 H  12.45083  11.01738  2.12670
 H  -11.65859  -6.69488  -5.90322
 H  -9.40221  -9.46197  -2.96426
 H  19.59282  10.67042  3.55205
 H  16.26629  13.48575  5.09921
*
