# ================================================================
# Orca input file made by Matty Jones
# ================================================================
! ZINDO/S 
! NOPOP
! NOMOPRINT
* xyz 0   1
 C  9.39797  7.38872  -0.08436
 C  10.62964  8.02806  0.06448
 C  11.54499  7.33992  0.92055
 C  11.03354  6.15121  1.45036
 S  9.49731  6.01606  0.84032
 H  10.84700  9.18035  0.20946
 C  13.03301  7.88772  1.24445
 C  13.22069  9.47509  1.83507
 C  14.80536  10.05443  2.09209
 H  14.70255  11.21178  2.00341
 H  15.42997  9.70064  1.18950
 H  12.72073  10.18797  1.08340
 H  12.67268  9.52578  2.84650
 H  13.56129  7.19532  2.01480
 H  13.66349  7.85199  0.26067
 C  15.60621  9.77441  3.48519
 C  17.22697  10.29169  3.46961
 C  17.55538  11.86276  3.97704
 H  17.70668  12.53959  3.05000
 H  18.52287  11.86250  4.61418
 H  16.67457  12.26192  4.61044
 H  17.82468  9.57170  4.14354
 H  17.60501  10.20428  2.38333
 H  15.61002  8.64007  3.70626
 H  15.07694  10.32106  4.35491
 C  -16.03242  -12.74156  -5.24929
 C  -14.85559  -12.20136  -4.72858
 C  -15.05993  -11.08096  -3.86416
 C  -16.40491  -10.73472  -3.70148
 S  -17.25849  -11.81781  -4.62276
 H  -13.83898  -12.66020  -4.95743
 C  -13.68378  -10.44165  -3.30513
 C  -13.30775  -8.78589  -3.33370
 C  -13.84208  -7.89500  -2.00244
 H  -14.92874  -8.18120  -1.76577
 H  -13.78487  -6.76623  -2.23981
 H  -12.15668  -8.68991  -3.38260
 H  -13.77200  -8.33149  -4.28172
 H  -13.64297  -10.70980  -2.18666
 H  -12.75738  -10.97320  -3.81158
 C  -12.90648  -8.25000  -0.72347
 C  -13.37679  -7.50663  0.71184
 C  -12.46659  -6.14584  1.07699
 H  -12.73863  -5.78401  2.14239
 H  -12.68894  -5.30830  0.31065
 H  -11.34230  -6.42091  1.03938
 H  -14.47983  -7.18350  0.60787
 H  -13.28015  -8.26371  1.57319
 H  -11.81589  -7.93454  -0.94917
 H  -12.92512  -9.39321  -0.54147
 H  8.57300  7.71245  -0.66592
 H  11.52485  5.47754  2.10487
 H  -16.12324  -13.56812  -5.90668
 H  -16.79684  -9.94528  -3.11261
*
