# ================================================================
# Orca input file made by Matty Jones
# ================================================================
! ZINDO/S 
! NOPOP
! NOMOPRINT
* xyz 0   1
 C  0.55165  6.85040  -1.04521
 C  -0.10062  5.62523  -1.19149
 C  0.49286  4.55575  -0.45104
 C  1.61945  4.93836  0.28363
 S  1.81915  6.55699  -0.01737
 H  -1.20173  5.61033  -1.48384
 C  -0.21398  3.11502  -0.57553
 C  -1.89953  3.15207  -0.41176
 C  -2.56551  3.40329  -1.93807
 H  -3.66229  3.74075  -1.80063
 H  -2.00714  4.19136  -2.56185
 H  -2.27430  2.15953  0.02791
 H  -2.19226  4.02332  0.28078
 H  0.08487  2.26444  0.14589
 H  0.02802  2.70454  -1.64616
 C  -2.48801  2.00379  -2.76289
 C  -3.15974  2.12819  -4.29588
 C  -4.78114  1.69693  -4.25457
 H  -5.39014  2.43050  -4.90993
 H  -5.17279  1.73902  -3.16580
 H  -4.89437  0.61965  -4.66279
 H  -3.06642  3.21535  -4.66606
 H  -2.59411  1.42543  -5.01220
 H  -1.38673  1.67907  -2.90187
 H  -3.03969  1.17350  -2.17605
 C  3.96501  0.34846  3.36632
 C  3.46921  -0.84523  2.83985
 C  4.06147  -2.02041  3.39881
 C  5.02983  -1.75332  4.37157
 S  5.10128  -0.10047  4.48724
 H  2.72069  -0.91272  1.97896
 C  3.60553  -3.50097  2.91606
 C  1.94703  -3.98786  3.01711
 C  0.46932  -3.98492  2.11735
 H  -0.01237  -5.00404  2.41428
 H  -0.14633  -3.14937  2.64782
 H  2.07497  -5.12704  3.21958
 H  1.62230  -3.47647  4.00665
 H  4.21072  -4.32747  3.46278
 H  3.85250  -3.60131  1.77614
 C  0.15776  -3.80227  0.52359
 C  -0.04808  -5.24148  -0.35832
 C  -1.60730  -5.89307  -0.36684
 H  -1.68923  -6.68754  0.47131
 H  -1.80844  -6.39227  -1.39172
 H  -2.38311  -5.05546  -0.18436
 H  0.23535  -5.01594  -1.45304
 H  0.66975  -6.03172  0.07117
 H  -0.81676  -3.19013  0.39675
 H  1.02667  -3.22106  0.03176
 H  0.29156  7.77377  -1.49613
 H  2.22006  4.32274  0.90320
 H  3.67608  1.33419  3.10472
 H  5.59905  -2.45945  4.92018
*
