# ================================================================
# Orca input file made by Matty Jones
# ================================================================
! ZINDO/S 
! NOPOP
! NOMOPRINT
* xyz 0   1
 C  5.94315  -28.79169  -4.84077
 C  7.12462  -28.12218  -4.51863
 C  7.95317  -28.81720  -3.58337
 C  7.42328  -30.04170  -3.16489
 S  5.97783  -30.19780  -3.96285
 H  7.41561  -27.10367  -4.94641
 C  9.42556  -28.46668  -2.90356
 C  10.39792  -27.19276  -2.14596
 C  11.64202  -26.15926  -2.72859
 H  11.22816  -25.64025  -3.67128
 H  12.51426  -26.85708  -3.03336
 H  10.89502  -27.72997  -1.25283
 H  9.59201  -26.46607  -1.75371
 H  9.48354  -29.17496  -1.98167
 H  10.20796  -28.83512  -3.69820
 C  12.24493  -25.01264  -1.71071
 C  13.29330  -25.30214  -0.38405
 C  14.97718  -25.29627  -0.52238
 H  15.27759  -25.22035  -1.63492
 H  15.39518  -26.27830  -0.07144
 H  15.41172  -24.39575  0.06211
 H  13.04453  -24.46921  0.38058
 H  12.98883  -26.32092  0.06159
 H  11.34067  -24.44587  -1.26116
 H  12.84196  -24.27088  -2.37607
 C  -12.72915  23.46287  -0.77396
 C  -11.55231  24.00308  -0.25325
 C  -11.75665  25.12347  0.61117
 C  -13.10163  25.46971  0.77385
 S  -13.95521  24.38662  -0.14743
 H  -10.53570  23.54424  -0.48210
 C  -10.38050  25.76279  1.17020
 C  -10.00447  27.41854  1.14163
 C  -10.53880  28.30944  2.47289
 H  -11.62546  28.02324  2.70956
 H  -10.48159  29.43820  2.23552
 H  -8.85340  27.51452  1.09274
 H  -10.46873  27.87294  0.19362
 H  -10.33969  25.49463  2.28867
 H  -9.45410  25.23123  0.66375
 C  -9.60320  27.95443  3.75187
 C  -10.07351  28.69780  5.18717
 C  -9.16331  30.05860  5.55232
 H  -9.43535  30.42043  6.61773
 H  -9.38566  30.89613  4.78598
 H  -8.03902  29.78353  5.51471
 H  -11.17655  29.02093  5.08320
 H  -9.97687  27.94073  6.04852
 H  -8.51261  28.26989  3.52616
 H  -9.62184  26.81122  3.93386
 H  5.18378  -28.46924  -5.50634
 H  7.85505  -30.72673  -2.48086
 H  -12.81996  22.63632  -1.43135
 H  -13.49356  26.25915  1.36272
*
