# ================================================================
# Orca input file made by Matty Jones
# ================================================================
! ZINDO/S 
! NOPOP
! NOMOPRINT
* xyz 0   1
 C  -14.29026  -11.03265  -2.39982
 C  -13.03100  -10.89750  -2.98624
 C  -11.95007  -11.32314  -2.15277
 C  -12.35785  -11.79679  -0.90189
 S  -14.01110  -11.66585  -0.89310
 H  -12.67583  -9.92285  -3.53915
 C  -10.43205  -11.22857  -2.70170
 C  -10.01829  -9.72750  -3.41253
 C  -8.48804  -9.44339  -4.10380
 H  -8.66208  -8.69939  -4.97505
 H  -8.13530  -10.45174  -4.54909
 H  -10.76247  -9.54447  -4.27310
 H  -10.16714  -8.93030  -2.59325
 H  -9.67796  -11.40302  -1.83291
 H  -10.25202  -12.04161  -3.51128
 C  -7.31853  -8.84995  -3.14241
 C  -5.84474  -8.42203  -3.87128
 C  -5.73250  -8.53171  -5.54685
 H  -5.91075  -9.62565  -5.87618
 H  -4.67388  -8.19570  -5.87601
 H  -6.52324  -7.84087  -6.03234
 H  -5.62083  -7.32807  -3.58089
 H  -5.03017  -9.10671  -3.42542
 H  -7.07065  -9.63666  -2.32965
 H  -7.71592  -7.89599  -2.61926
 C  14.20064  9.57403  3.63237
 C  13.07246  8.85709  4.03375
 C  11.99368  9.67528  4.49316
 C  12.27142  11.04520  4.45435
 S  13.81541  11.17026  3.86199
 H  12.59055  7.84446  3.65646
 C  10.53916  9.19249  5.00629
 C  9.51595  8.60497  3.78903
 C  8.75128  9.94995  3.04631
 H  9.49949  10.83023  3.16872
 H  8.71640  9.68008  1.91809
 H  10.12315  8.03390  3.00370
 H  8.70861  7.93544  4.25304
 H  9.96367  9.98295  5.61095
 H  10.69383  8.28286  5.73130
 C  7.27986  10.51682  3.46358
 C  6.04054  9.90966  2.48157
 C  5.82443  10.78417  1.05549
 H  5.60558  11.89114  1.30792
 H  4.93620  10.33438  0.46552
 H  6.78766  10.71278  0.41776
 H  5.05600  9.95033  3.07792
 H  6.28694  8.81889  2.21067
 H  7.04186  10.22214  4.55513
 H  7.26391  11.66985  3.37844
 H  -15.22749  -10.78311  -2.82752
 H  -11.73972  -12.16287  -0.12248
 H  15.11166  9.18093  3.25937
 H  11.62952  11.83778  4.74309
*
