# ================================================================
# Orca input file made by Matty Jones
# ================================================================
! ZINDO/S 
! NOPOP
! NOMOPRINT
* xyz 0   1
 C  14.52979  9.40776  -1.28752
 C  14.03398  8.21408  -1.81399
 C  14.62624  7.03889  -1.25503
 C  15.59461  7.30598  -0.28227
 S  15.66605  8.95884  -0.16659
 H  13.28546  8.14659  -2.67488
 C  14.17030  5.55833  -1.73778
 C  12.51181  5.07145  -1.63673
 C  11.03409  5.07439  -2.53648
 H  10.55241  4.05527  -2.23955
 H  10.41844  5.90994  -2.00601
 H  12.63975  3.93226  -1.43426
 H  12.18708  5.58284  -0.64719
 H  14.77550  4.73184  -1.19106
 H  14.41728  5.45800  -2.87770
 C  10.72254  5.25704  -4.13025
 C  10.51670  3.81782  -5.01216
 C  8.95748  3.16624  -5.02068
 H  8.87555  2.37177  -4.18253
 H  8.75633  2.66704  -6.04556
 H  8.18167  4.00385  -4.83820
 H  10.80012  4.04336  -6.10688
 H  11.23452  3.02759  -4.58267
 H  9.74802  5.86918  -4.25709
 H  11.59145  5.83825  -4.62208
 C  -13.60776  -7.98580  -1.13434
 C  -12.99992  -7.54726  0.04299
 C  -13.81847  -6.68414  0.83625
 C  -15.07904  -6.43990  0.28249
 S  -15.11398  -7.29272  -1.13944
 H  -12.07745  -8.04419  0.52265
 C  -13.13952  -6.10270  2.16991
 C  -11.59603  -5.52804  1.82933
 C  -10.54715  -4.93425  3.00058
 H  -10.65719  -3.78071  3.01909
 H  -9.46801  -5.18599  2.66042
 H  -11.00955  -6.38404  1.32102
 H  -11.75465  -4.67511  1.06430
 H  -13.79837  -5.26023  2.62981
 H  -13.07975  -6.95751  2.95836
 C  -10.79115  -5.52793  4.48955
 C  -11.94177  -4.65067  5.34853
 C  -11.26539  -3.30258  6.08896
 H  -10.50249  -3.64314  6.88864
 H  -12.10414  -2.67975  6.58698
 H  -10.72902  -2.66058  5.28925
 H  -12.77234  -4.30745  4.62935
 H  -12.38834  -5.33407  6.16139
 H  -9.79623  -5.50392  5.08149
 H  -11.14966  -6.62642  4.42356
 H  14.24085  10.39350  -1.54912
 H  16.16383  6.59986  0.26634
 H  -13.19377  -8.62679  -1.87010
 H  -15.85071  -5.83609  0.68689
*
