# ================================================================
# Orca input file made by Matty Jones
# ================================================================
! ZINDO/S 
! NOPOP
! NOMOPRINT
* xyz 0   1
 C  -11.83315  -30.60321  -9.96758
 C  -11.27854  -31.46982  -10.91060
 C  -10.13449  -32.18797  -10.44191
 C  -9.78397  -31.88693  -9.12213
 S  -10.89240  -30.76383  -8.61175
 H  -11.57231  -31.30923  -12.00070
 C  -9.52739  -33.19305  -11.56486
 C  -10.73178  -33.47509  -12.81771
 C  -12.10873  -34.47855  -12.72485
 H  -11.74569  -35.55338  -12.94988
 H  -12.44246  -34.43034  -11.61551
 H  -10.06555  -34.08178  -13.57151
 H  -11.00049  -32.51576  -13.38707
 H  -9.26526  -34.21888  -11.10406
 H  -8.59850  -32.73230  -12.07369
 C  -13.44482  -34.19524  -13.64755
 C  -13.68159  -32.80596  -14.60432
 C  -15.16149  -32.76804  -15.42929
 H  -15.93641  -33.41667  -14.86670
 H  -15.01250  -33.18170  -16.49953
 H  -15.53978  -31.67575  -15.48626
 H  -12.83675  -32.75594  -15.38273
 H  -13.63720  -31.88598  -13.91472
 H  -13.54535  -35.08409  -14.38628
 H  -14.36090  -34.21899  -12.93456
 C  7.27263  31.48423  12.29462
 C  8.47158  32.18046  12.45492
 C  9.29467  31.68919  13.51579
 C  8.74288  30.59955  14.19662
 S  7.28614  30.30542  13.46052
 H  8.66240  33.16845  11.91807
 C  10.69714  32.45629  13.73143
 C  11.42187  32.81491  12.22126
 C  12.85268  33.68863  12.02809
 H  13.00261  34.28088  13.01542
 H  12.64952  34.45642  11.18082
 H  11.60100  31.78775  11.72274
 H  10.65406  33.40566  11.59493
 H  10.52878  33.45473  14.29271
 H  11.44104  31.80116  14.33339
 C  14.23550  32.90961  11.68583
 C  15.49765  34.00376  11.39781
 C  16.32525  34.41694  12.79916
 H  16.93899  35.38010  12.61362
 H  17.03674  33.55153  13.08899
 H  15.56649  34.59900  13.65420
 H  16.23583  33.52263  10.65667
 H  15.05899  34.96357  10.93438
 H  14.09990  32.27299  10.73043
 H  14.53894  32.21938  12.55902
 H  -12.67772  -29.97485  -10.09194
 H  -8.97845  -32.29178  -8.56461
 H  6.51348  31.66991  11.57851
 H  9.16690  30.07199  15.01239
*
