# ================================================================
# Orca input file made by Matty Jones
# ================================================================
! ZINDO/S 
! NOPOP
! NOMOPRINT
* xyz 0   1
 C  18.60594  2.66658  -8.73115
 C  19.89727  3.11849  -9.00711
 C  20.93162  2.32235  -8.42355
 C  20.45465  1.23632  -7.68306
 S  18.80149  1.31712  -7.78785
 H  20.29755  4.21259  -9.09470
 C  22.53370  2.50110  -8.49959
 C  23.38359  3.83088  -7.82293
 C  23.79877  3.41735  -6.20971
 H  22.79777  3.36073  -5.63179
 H  24.26030  2.35525  -6.24357
 H  24.35287  3.99791  -8.41168
 H  22.73299  4.77232  -7.82499
 H  23.05833  1.56230  -8.04512
 H  22.82624  2.54334  -9.63324
 C  24.82307  4.38399  -5.38933
 C  24.11761  5.66321  -4.54722
 C  23.98479  7.04425  -5.49421
 H  23.82218  7.96416  -4.81114
 H  23.08488  6.92759  -6.21229
 H  24.95503  7.18561  -6.10885
 H  23.06720  5.34786  -4.19687
 H  24.77407  5.90680  -3.63206
 H  25.38976  3.74463  -4.60451
 H  25.60123  4.82489  -6.12332
 C  -18.42430  -4.28698  5.30238
 C  -19.65018  -4.80315  4.87965
 C  -20.77996  -4.26507  5.57127
 C  -20.44450  -3.31927  6.54504
 S  -18.79096  -3.20020  6.49969
 H  -20.00016  -5.02453  3.75307
 C  -22.28433  -4.74717  5.19229
 C  -23.52430  -5.16374  6.31118
 C  -23.32883  -5.22941  7.99311
 H  -24.19739  -5.85540  8.42960
 H  -22.32869  -5.75521  8.22530
 H  -24.39330  -4.43461  6.10254
 H  -23.85907  -6.23125  6.01101
 H  -22.17795  -5.70763  4.53446
 H  -22.76600  -3.91532  4.52416
 C  -23.35618  -3.73564  8.62958
 C  -24.80948  -2.97576  9.00167
 C  -25.29103  -1.88675  7.80272
 H  -26.44434  -1.88417  7.71546
 H  -24.83327  -2.19870  6.78630
 H  -24.92579  -0.82186  8.06839
 H  -25.58450  -3.81995  9.08285
 H  -24.68966  -2.45190  10.01478
 H  -22.66495  -3.67388  9.54902
 H  -22.95594  -3.10221  7.74917
 H  17.69274  3.09561  -9.05610
 H  21.02937  0.51288  -7.16352
 H  -17.46181  -4.53702  4.93538
 H  -21.10813  -2.78936  7.17939
*
