# ================================================================
# Orca input file made by Matty Jones
# ================================================================
! ZINDO/S 
! NOPOP
! NOMOPRINT
* xyz 0   1
 C  11.39799  11.88265  2.48698
 C  12.62200  12.52034  2.69444
 C  13.52902  11.78794  3.52220
 C  13.01863  10.56575  3.97062
 S  11.49346  10.45715  3.32838
 H  13.30221  13.09342  1.89695
 C  14.99344  12.38804  3.86286
 C  15.13993  13.94290  4.56867
 C  16.67790  14.67250  4.78230
 H  16.39305  15.79752  4.94181
 H  17.20147  14.59273  3.75427
 H  14.52579  14.65578  3.90600
 H  14.66509  13.86922  5.61470
 H  15.55058  11.66393  4.57908
 H  15.61363  12.44209  2.87494
 C  17.76211  14.35432  5.96069
 C  19.35784  14.77111  5.51096
 C  20.01187  16.27763  5.87662
 H  20.01085  16.42377  7.02365
 H  19.39049  17.10820  5.36753
 H  21.10299  16.31304  5.48613
 H  20.05424  13.99344  6.00316
 H  19.41443  14.67414  4.36190
 H  17.74869  13.22827  6.21184
 H  17.50789  14.95525  6.91411
 C  -14.57877  -9.95833  -6.12276
 C  -14.57845  -11.09429  -5.31190
 C  -14.49992  -10.81261  -3.91235
 C  -14.43791  -9.44733  -3.61658
 S  -14.48288  -8.67146  -5.08166
 H  -14.22544  -12.09504  -5.75454
 C  -14.53355  -12.18251  -3.03859
 C  -15.88600  -13.09438  -3.70627
 C  -16.64257  -14.62746  -3.54745
 H  -17.77474  -14.44598  -3.42724
 H  -16.22531  -15.12129  -2.59504
 H  -15.67424  -13.13179  -4.83808
 H  -16.76129  -12.36024  -3.51068
 H  -14.72725  -11.97382  -1.92303
 H  -13.57377  -12.80524  -3.18020
 C  -16.38325  -15.60504  -4.83729
 C  -17.16216  -17.11402  -4.85803
 C  -18.66188  -17.20391  -5.62734
 H  -19.49041  -17.35143  -4.83312
 H  -18.66184  -18.10641  -6.35358
 H  -18.85979  -16.23138  -6.22046
 H  -17.31052  -17.44108  -3.76283
 H  -16.45729  -17.85734  -5.38791
 H  -15.24878  -15.81389  -4.92459
 H  -16.72737  -15.05037  -5.79508
 H  10.57985  12.23529  1.91262
 H  13.50478  9.85706  4.59112
 H  -14.62959  -9.92525  -7.18102
 H  -14.37527  -9.00159  -2.65690
*
