# ================================================================
# Orca input file made by Matty Jones
# ================================================================
! ZINDO/S 
! NOPOP
! NOMOPRINT
* xyz 0   1
 C  -14.96778  15.44792  26.24502
 C  -14.60643  14.27822  25.57485
 C  -13.30373  13.79268  25.90878
 C  -12.63305  14.58297  26.84736
 S  -13.67252  15.82343  27.20959
 H  -15.42677  13.51120  25.30499
 C  -12.92906  12.44992  25.09110
 C  -13.49625  12.47648  23.42646
 C  -14.41327  13.76651  22.72482
 H  -15.34289  13.94840  23.38234
 H  -13.72109  14.68983  22.77062
 H  -12.54927  12.38601  22.78106
 H  -14.14645  11.53612  23.31097
 H  -13.42676  11.52714  25.58655
 H  -11.78371  12.29600  25.05511
 C  -15.09406  13.69811  21.23300
 C  -16.73900  13.25059  21.22879
 C  -17.86702  14.50484  21.32644
 H  -17.44901  15.35115  21.99413
 H  -18.84926  14.09736  21.78455
 H  -18.07777  14.91275  20.26439
 H  -16.91638  12.54786  22.12410
 H  -16.93965  12.68111  20.24690
 H  -15.02550  14.73823  20.73502
 H  -14.52634  12.93171  20.58506
 C  10.92747  -14.45520  -23.49742
 C  12.31259  -14.28664  -23.46684
 C  12.94046  -14.82351  -22.29986
 C  12.04662  -15.41899  -21.40446
 S  10.54758  -15.25226  -22.09404
 H  12.89410  -13.87722  -24.35905
 C  14.53938  -14.68544  -22.19511
 C  15.01253  -13.07764  -22.55184
 C  16.64626  -12.67604  -22.53956
 H  16.70613  -11.59052  -22.12916
 H  17.16727  -13.37572  -21.77823
 H  14.61225  -12.83007  -23.60072
 H  14.48357  -12.40335  -21.77832
 H  14.91261  -14.87940  -21.11284
 H  15.07630  -15.39741  -22.92278
 C  17.47394  -12.71648  -23.94792
 C  16.65891  -12.65517  -25.43278
 C  16.21478  -14.13280  -26.10258
 H  16.61934  -14.19543  -27.18636
 H  15.06017  -14.21490  -26.11655
 H  16.65710  -14.99696  -25.47457
 H  15.71756  -12.00413  -25.31288
 H  17.37247  -12.13940  -26.18349
 H  18.08941  -13.69972  -23.96510
 H  18.21797  -11.82774  -23.95355
 H  -15.87829  15.98332  26.15610
 H  -11.66330  14.42275  27.24424
 H  10.25926  -14.14009  -24.25755
 H  12.27858  -15.88037  -20.47875
*
