# ================================================================
# Orca input file made by Matty Jones
# ================================================================
! ZINDO/S 
! NOPOP
! NOMOPRINT
* xyz 0   1
 C  -19.90794  -3.53212  -1.59471
 C  -18.71501  -3.29306  -2.27856
 C  -17.54887  -3.77008  -1.60266
 C  -17.82238  -4.38894  -0.37893
 S  -19.46946  -4.31439  -0.20012
 H  -18.50424  -2.17941  -2.63121
 C  -16.13323  -3.50632  -2.36676
 C  -16.16959  -1.93202  -3.12942
 C  -15.20530  -0.87048  -4.09156
 H  -14.76090  -0.06465  -3.40030
 H  -14.36669  -1.47623  -4.58823
 H  -17.00146  -2.14588  -3.91401
 H  -16.53810  -1.24344  -2.28246
 H  -15.25145  -3.49956  -1.61706
 H  -15.94594  -4.29508  -3.18594
 C  -16.18095  -0.17074  -5.21413
 C  -15.73541  1.20625  -6.10354
 C  -15.02986  1.08513  -7.62697
 H  -14.85453  2.15436  -8.04069
 H  -15.73972  0.51125  -8.33778
 H  -14.01886  0.53181  -7.54319
 H  -16.71350  1.78975  -6.25850
 H  -15.01217  1.80863  -5.43987
 H  -16.40763  -0.98194  -6.01376
 H  -17.18093  0.10611  -4.69492
 C  20.67264  1.29337  1.33310
 C  19.77983  0.30759  1.75619
 C  18.72124  0.79517  2.58440
 C  18.77846  2.17292  2.81646
 S  20.11696  2.70779  1.99624
 H  19.99078  -0.78944  2.11003
 C  17.64015  -0.28916  3.09942
 C  16.00983  -0.07714  3.52822
 C  15.24667  1.39302  3.84504
 H  15.81846  2.25875  3.35004
 H  14.16648  1.35928  3.44317
 H  15.40830  -0.52733  2.64213
 H  15.84103  -0.76068  4.44678
 H  18.09911  -0.79722  4.05140
 H  17.57762  -1.12719  2.27887
 C  15.25816  1.51111  5.47015
 C  14.54658  2.85394  6.15878
 C  13.78502  3.93006  5.11972
 H  13.24327  3.33817  4.28456
 H  14.57840  4.62749  4.64586
 H  13.00396  4.56843  5.68161
 H  13.83825  2.46897  6.97062
 H  15.42049  3.37038  6.66792
 H  14.69603  0.59094  5.90665
 H  16.35446  1.45836  5.84340
 H  -20.88769  -3.26904  -1.90209
 H  -17.12332  -4.81625  0.29362
 H  21.52602  1.16491  0.71760
 H  18.10692  2.75383  3.39540
*
