# ================================================================
# Orca input file made by Matty Jones
# ================================================================
! ZINDO/S 
! NOPOP
! NOMOPRINT
* xyz 0   1
 C  -15.60166  -9.36831  -4.64147
 C  -14.40872  -9.12926  -5.32532
 C  -13.24259  -9.60628  -4.64942
 C  -13.51609  -10.22514  -3.42569
 S  -15.16318  -10.15059  -3.24688
 H  -14.19795  -8.01561  -5.67797
 C  -11.82694  -9.34252  -5.41352
 C  -11.86330  -7.76822  -6.17618
 C  -10.89901  -6.70667  -7.13832
 H  -10.45462  -5.90085  -6.44706
 H  -10.06041  -7.31243  -7.63499
 H  -12.69518  -7.98208  -6.96077
 H  -12.23182  -7.07964  -5.32922
 H  -10.94516  -9.33576  -4.66382
 H  -11.63966  -10.13128  -6.23270
 C  -11.87467  -6.00694  -8.26088
 C  -11.42912  -4.62995  -9.15030
 C  -10.72357  -4.75107  -10.67373
 H  -10.54825  -3.68184  -11.08745
 H  -11.43343  -5.32495  -11.38454
 H  -9.71257  -5.30439  -10.58995
 H  -12.40722  -4.04645  -9.30526
 H  -10.70589  -4.02757  -8.48663
 H  -12.10135  -6.81814  -9.06052
 H  -12.87464  -5.73009  -7.74168
 C  17.11845  7.19079  6.84246
 C  16.03601  6.52504  7.41952
 C  15.00543  7.39232  7.89908
 C  15.27545  8.74977  7.69967
 S  16.75429  8.80470  6.95106
 H  15.51749  5.49606  7.16645
 C  13.61097  6.96725  8.59887
 C  12.40988  6.47860  7.49163
 C  11.64223  7.91673  6.96646
 H  11.08402  8.31867  7.90085
 H  12.51156  8.64544  6.72282
 H  12.88226  5.93958  6.59940
 H  11.64102  5.81344  8.02087
 H  13.17670  7.81275  9.25962
 H  13.79415  6.05033  9.29784
 C  10.60664  7.98794  5.70793
 C  8.93622  7.95098  5.96078
 C  8.23816  6.43142  5.82124
 H  8.94359  5.63924  6.28256
 H  8.06558  6.19351  4.70118
 H  7.22374  6.42385  6.37830
 H  8.44517  8.64216  5.17772
 H  8.71939  8.35757  7.01667
 H  10.81658  8.97445  5.13195
 H  10.84766  7.10322  4.99783
 H  -16.58141  -9.10524  -4.94885
 H  -12.81704  -10.65245  -2.75313
 H  17.98965  6.75627  6.42318
 H  14.66313  9.57160  7.97033
*
