# ================================================================
# Orca input file made by Matty Jones
# ================================================================
! ZINDO/S 
! NOPOP
! NOMOPRINT
* xyz 0   1
 C  25.15011  2.28062  -7.32006
 C  24.71546  1.41203  -8.32232
 C  24.92527  0.02878  -8.02757
 C  25.52863  -0.19601  -6.78631
 S  25.76740  1.30737  -6.12808
 H  24.95426  1.54277  -9.48166
 C  24.44844  -1.00906  -9.17603
 C  23.41178  -2.37289  -9.11626
 C  21.77014  -2.00158  -9.41605
 H  21.39414  -1.48219  -8.45042
 H  21.76953  -1.21995  -10.27166
 H  23.75919  -3.12279  -9.91352
 H  23.49076  -2.83757  -8.06906
 H  25.43510  -1.47258  -9.61361
 H  23.97667  -0.37765  -10.04497
 C  20.68833  -3.16756  -9.80997
 C  20.41842  -3.36648  -11.47950
 C  19.23511  -4.48690  -11.91458
 H  18.18825  -4.02082  -11.75352
 H  19.34482  -5.43596  -11.26285
 H  19.36619  -4.76423  -13.03095
 H  20.10772  -2.34402  -11.90993
 H  21.41220  -3.70178  -11.95525
 H  21.04574  -4.18651  -9.40133
 H  19.66545  -2.90978  -9.33659
 C  -18.88422  3.51873  8.11820
 C  -19.86832  2.92349  8.90886
 C  -20.50730  3.82115  9.81999
 C  -20.02532  5.13184  9.74844
 S  -18.85047  5.11137  8.57808
 H  -20.05727  1.80021  8.94035
 C  -21.68167  3.36156  10.82714
 C  -23.17452  2.91959  10.16346
 C  -23.47247  1.41139  9.47400
 H  -22.47592  1.16302  8.94458
 H  -24.26561  1.62970  8.64628
 H  -23.41353  3.71281  9.35727
 H  -23.94164  3.03042  11.02598
 H  -21.90407  4.20645  11.59597
 H  -21.31283  2.43652  11.43660
 C  -23.97216  0.05980  10.22947
 C  -24.26647  -1.16084  9.07966
 C  -25.84567  -1.29061  8.51027
 H  -26.03873  -2.38179  8.17416
 H  -25.99064  -0.57902  7.60901
 H  -26.58546  -1.00724  9.35224
 H  -23.93227  -2.16950  9.51546
 H  -23.65337  -0.90078  8.14321
 H  -24.94357  0.25293  10.81843
 H  -23.15413  -0.31972  10.95026
 H  25.09681  3.33928  -7.32075
 H  25.78063  -1.13146  -6.35614
 H  -18.28478  3.05122  7.37948
 H  -20.34411  5.96422  10.32212
*
