# ================================================================
# Orca input file made by Matty Jones
# ================================================================
! ZINDO/S 
! NOPOP
! NOMOPRINT
* xyz 0   1
 C  14.28063  2.23324  3.28403
 C  15.47356  2.47230  2.60019
 C  16.63970  1.99528  3.27609
 C  16.36619  1.37642  4.49982
 S  14.71911  1.45097  4.67863
 H  15.68433  3.58595  2.24753
 C  18.05534  2.25904  2.51198
 C  18.01898  3.83334  1.74933
 C  18.98327  4.89488  0.78718
 H  19.42767  5.70071  1.47845
 H  19.82188  4.28912  0.29051
 H  17.18711  3.61948  0.96474
 H  17.65047  4.52192  2.59628
 H  18.93712  2.26580  3.26168
 H  18.24263  1.47028  1.69281
 C  18.00762  5.59462  -0.33538
 C  18.45316  6.97161  -1.22480
 C  19.15871  6.85049  -2.74823
 H  19.33404  7.91972  -3.16194
 H  18.44885  6.27661  -3.45904
 H  20.16971  6.29717  -2.66445
 H  17.47507  7.55511  -1.37975
 H  19.17639  7.57399  -0.56112
 H  17.78094  4.78342  -1.13501
 H  17.00764  5.87147  0.18382
 C  -18.96459  -6.63788  -4.89176
 C  -18.35675  -6.19934  -3.71443
 C  -19.17530  -5.33622  -2.92117
 C  -20.43587  -5.09198  -3.47492
 S  -20.47081  -5.94481  -4.89686
 H  -17.43427  -6.69628  -3.23477
 C  -18.49635  -4.75478  -1.58751
 C  -16.95286  -4.18013  -1.92809
 C  -15.90398  -3.58634  -0.75684
 H  -16.01402  -2.43280  -0.73833
 H  -14.82484  -3.83808  -1.09700
 H  -16.36638  -5.03613  -2.43640
 H  -17.11148  -3.32720  -2.69312
 H  -19.15520  -3.91232  -1.12760
 H  -18.43658  -5.60960  -0.79906
 C  -16.14797  -4.18002  0.73213
 C  -17.29860  -3.30276  1.59111
 C  -16.62222  -1.95467  2.33154
 H  -15.85932  -2.29522  3.13122
 H  -17.46097  -1.33183  2.82956
 H  -16.08585  -1.31267  1.53183
 H  -18.12917  -2.95954  0.87193
 H  -17.74517  -3.98615  2.40398
 H  -15.15306  -4.15600  1.32407
 H  -16.50649  -5.27851  0.66615
 H  13.30088  2.49632  2.97666
 H  17.06525  0.94911  5.17237
 H  -18.55060  -7.27887  -5.62752
 H  -21.20754  -4.48817  -3.07053
*
