# ================================================================
# Orca input file made by Matty Jones
# ================================================================
! ZINDO/S 
! NOPOP
! NOMOPRINT
* xyz 0   1
 C  -16.94467  -4.75500  11.17738
 C  -17.72549  -5.68403  11.86667
 C  -16.97166  -6.62019  12.64100
 C  -15.58862  -6.42942  12.56276
 S  -15.37426  -5.13076  11.55382
 H  -18.86726  -5.68623  11.85303
 C  -17.59269  -7.83971  13.52734
 C  -18.84978  -7.78014  14.70071
 C  -19.18675  -9.27929  15.48807
 H  -19.26204  -9.00873  16.61310
 H  -18.22656  -9.91134  15.33149
 H  -19.81162  -7.44906  14.16865
 H  -18.55515  -7.01949  15.50640
 H  -16.70812  -8.32990  14.11857
 H  -17.99071  -8.64455  12.77345
 C  -20.45520  -10.25347  15.14193
 C  -20.50967  -11.74634  15.96540
 C  -19.90065  -13.05302  15.09102
 H  -18.77765  -12.88425  14.87552
 H  -20.48153  -13.13936  14.09273
 H  -20.04078  -14.02513  15.70299
 H  -19.88678  -11.64513  16.92966
 H  -21.60551  -11.97155  16.23676
 H  -20.46671  -10.48520  14.01137
 H  -21.43232  -9.69907  15.42010
 C  16.58260  4.34649  -14.18820
 C  17.42368  5.44127  -13.98339
 C  16.79875  6.54101  -13.31684
 C  15.45743  6.31348  -12.99371
 S  15.12002  4.78509  -13.54199
 H  18.51547  5.49094  -14.31057
 C  17.80349  7.79596  -13.09298
 C  17.55762  9.36424  -13.67768
 C  18.93599  10.30449  -13.30570
 H  18.61486  11.41358  -13.35054
 H  19.25260  10.05092  -12.22562
 H  17.42210  9.32966  -14.81664
 H  16.63893  9.82772  -13.17198
 H  17.90575  7.93940  -11.93437
 H  18.87123  7.50409  -13.47367
 C  20.20650  10.07375  -14.31332
 C  20.43106  11.06827  -15.66617
 C  21.46458  12.37489  -15.41737
 H  20.93592  13.16053  -14.75389
 H  21.73458  12.84637  -16.44019
 H  22.43033  12.00895  -14.89541
 H  20.87464  10.42274  -16.51206
 H  19.40353  11.47563  -15.98910
 H  21.17819  10.16197  -13.68546
 H  20.14915  8.99212  -14.72701
 H  -17.28405  -3.97388  10.54628
 H  -14.83500  -6.99618  13.04694
 H  16.82726  3.42825  -14.65785
 H  14.79499  6.97862  -12.50140
*
