# ================================================================
# Orca input file made by Matty Jones
# ================================================================
! ZINDO/S 
! NOPOP
! NOMOPRINT
* xyz 0   1
 C  21.53891  8.13954  12.81826
 C  21.23915  6.77719  12.77306
 C  21.53503  6.07383  13.98219
 C  22.07113  6.88488  14.98723
 S  22.14974  8.40813  14.33610
 H  20.80722  6.24764  11.84615
 C  21.22828  4.48738  14.07475
 C  20.87876  3.59560  15.48351
 C  19.34534  3.41734  16.18228
 H  19.48967  3.31159  17.32470
 H  18.74245  4.37839  15.96952
 H  21.13768  2.50218  15.14385
 H  21.61498  3.83485  16.30660
 H  22.15675  3.93271  13.61644
 H  20.32059  4.25400  13.37749
 C  18.55395  2.11727  15.60530
 C  18.93732  0.63616  16.33401
 C  17.95277  0.15517  17.61000
 H  18.48247  0.38481  18.61284
 H  17.75836  -0.98390  17.52811
 H  16.94537  0.72163  17.56246
 H  20.01871  0.70688  16.72847
 H  18.88327  -0.17683  15.51791
 H  17.41583  2.27966  15.74470
 H  18.77061  2.00850  14.47414
 C  -18.62225  0.00421  -16.86135
 C  -18.62194  -1.13176  -16.05050
 C  -18.54340  -0.85007  -14.65095
 C  -18.48139  0.51521  -14.35518
 S  -18.52637  1.29107  -15.82025
 H  -18.26893  -2.13250  -16.49313
 C  -18.57704  -2.21998  -13.77719
 C  -19.92948  -3.13185  -14.44487
 C  -20.68605  -4.66493  -14.28604
 H  -21.81823  -4.48344  -14.16584
 H  -20.26879  -5.15875  -13.33364
 H  -19.71773  -3.16925  -15.57668
 H  -20.80478  -2.39770  -14.24928
 H  -18.77074  -2.01129  -12.66162
 H  -17.61726  -2.84271  -13.91880
 C  -20.42674  -5.64250  -15.57589
 C  -21.20565  -7.15149  -15.59662
 C  -22.70537  -7.24138  -16.36594
 H  -23.53390  -7.38890  -15.57171
 H  -22.70533  -8.14387  -17.09217
 H  -22.90328  -6.26885  -16.95905
 H  -21.35400  -7.47855  -14.50143
 H  -20.50078  -7.89481  -16.12651
 H  -19.29227  -5.85135  -15.66318
 H  -20.77086  -5.08783  -16.53368
 H  21.40443  8.85223  12.04523
 H  22.36563  6.58822  15.96133
 H  -18.67308  0.03728  -17.91962
 H  -18.41876  0.96094  -13.39549
*
