# ================================================================
# Orca input file made by Matty Jones
# ================================================================
! ZINDO/S 
! NOPOP
! NOMOPRINT
* xyz 0   1
 C  26.08409  1.75451  8.74934
 C  25.19482  0.72705  9.06779
 C  25.58471  -0.05215  10.20140
 C  26.78793  0.36212  10.78102
 S  27.29887  1.65254  9.87318
 H  24.23629  0.51105  8.48437
 C  24.62029  -1.27318  10.66234
 C  24.96674  -2.65316  11.61783
 C  25.63390  -4.13708  11.13941
 H  26.33222  -3.92781  10.24194
 H  26.27607  -4.52481  12.02227
 H  23.86992  -2.98127  11.90276
 H  25.42903  -2.34417  12.60797
 H  24.18203  -1.75201  9.68403
 H  23.71928  -0.78770  11.23148
 C  24.54307  -5.27559  10.72643
 C  23.85013  -6.14525  12.00556
 C  22.40826  -5.47588  12.56432
 H  22.64271  -4.57137  13.24609
 H  21.82445  -6.27364  13.16639
 H  21.77065  -5.12986  11.66278
 H  23.63258  -7.21537  11.63942
 H  24.59785  -6.17822  12.87990
 H  23.68349  -4.78439  10.12956
 H  25.06327  -6.05555  10.04495
 C  -19.94368  3.73351  -12.53933
 C  -21.09512  2.97276  -12.33111
 C  -22.13668  3.66717  -11.64031
 C  -21.80603  4.98289  -11.30136
 S  -20.26407  5.21453  -11.86625
 H  -21.14987  1.85694  -12.55987
 C  -23.45800  2.75484  -11.41881
 C  -25.08732  3.19951  -11.49693
 C  -25.76818  3.55446  -10.00295
 H  -24.95878  4.01491  -9.32080
 H  -26.61648  4.32066  -10.15827
 H  -25.17074  4.13695  -12.16406
 H  -25.67969  2.33675  -11.98054
 H  -23.36285  2.27140  -10.35240
 H  -23.40527  1.86987  -12.18537
 C  -26.35318  2.18236  -9.33126
 C  -27.95495  1.78646  -9.71281
 C  -28.18444  0.81825  -11.07236
 H  -28.95417  -0.01012  -10.82236
 H  -27.18203  0.33253  -11.38321
 H  -28.58789  1.46881  -11.94047
 H  -28.53530  2.76909  -9.87315
 H  -28.39688  1.22639  -8.80607
 H  -25.69601  1.28734  -9.65755
 H  -26.29162  2.27641  -8.17965
 H  26.00050  2.45281  7.95625
 H  27.27209  -0.06020  11.62413
 H  -19.05231  3.42874  -13.02531
 H  -22.41371  5.68517  -10.79035
*
