# ================================================================
# Orca input file made by Matty Jones
# ================================================================
! ZINDO/S 
! NOPOP
! NOMOPRINT
* xyz 0   1
 C  17.47390  0.10911  13.30605
 C  18.85902  0.27766  13.33663
 C  19.48689  -0.25921  14.50361
 C  18.59305  -0.85469  15.39901
 S  17.09401  -0.68796  14.70942
 H  19.44053  0.68708  12.44442
 C  21.08581  -0.12114  14.60836
 C  21.55896  1.48667  14.25163
 C  23.19269  1.88826  14.26390
 H  23.25256  2.97378  14.67431
 H  23.71370  1.18858  15.02523
 H  21.15868  1.73423  13.20275
 H  21.03000  2.16096  15.02515
 H  21.45904  -0.31509  15.69063
 H  21.62273  -0.83310  13.88069
 C  24.02037  1.84782  12.85555
 C  23.20534  1.90914  11.37068
 C  22.76121  0.43150  10.70089
 H  23.16577  0.36888  9.61711
 H  21.60660  0.34941  10.68692
 H  23.20353  -0.43266  11.32890
 H  22.26399  2.56018  11.49059
 H  23.91890  2.42491  10.61998
 H  24.63584  0.86458  12.83837
 H  24.76440  2.73656  12.84992
 C  -23.68900  -4.43165  -16.25126
 C  -22.49636  -3.87607  -15.78561
 C  -22.67365  -2.73227  -14.94623
 C  -24.01305  -2.38290  -14.74809
 S  -24.89506  -3.49198  -15.60974
 H  -21.47169  -4.30780  -16.03796
 C  -21.28451  -2.09384  -14.41027
 C  -20.84717  -0.46082  -14.45233
 C  -21.31005  0.45507  -13.12001
 H  -22.39919  0.21112  -12.84448
 H  -21.22829  1.57264  -13.40446
 H  -19.69616  -0.40935  -14.53550
 H  -21.31377  0.00442  -15.39798
 H  -21.20195  -2.37804  -13.27518
 H  -20.39206  -2.63139  -14.94535
 C  -20.33685  0.12722  -11.85583
 C  -20.68114  0.97308  -10.44145
 C  -19.69230  2.31035  -10.20476
 H  -20.03998  3.17659  -10.88702
 H  -18.59900  2.02608  -10.46003
 H  -19.75566  2.63536  -9.09559
 H  -21.77326  1.34080  -10.49655
 H  -20.56200  0.25785  -9.54637
 H  -19.24033  0.35568  -12.14775
 H  -20.41898  -0.99977  -11.60100
 H  16.80569  0.42422  12.54592
 H  18.82501  -1.31606  16.32472
 H  -23.80029  -5.27624  -16.88203
 H  -24.38646  -1.57776  -14.16851
*
