# ================================================================
# Orca input file made by Matty Jones
# ================================================================
! ZINDO/S 
! NOPOP
! NOMOPRINT
* xyz 0   1
 C  23.30932  3.45337  11.17361
 C  22.42005  2.42590  11.49206
 C  22.80995  1.64670  12.62567
 C  24.01316  2.06097  13.20529
 S  24.52410  3.35139  12.29745
 H  21.46152  2.20990  10.90864
 C  21.84553  0.42567  13.08660
 C  22.19197  -0.95431  14.04210
 C  22.85913  -2.43822  13.56368
 H  23.55745  -2.22896  12.66620
 H  23.50130  -2.82595  14.44654
 H  21.09515  -1.28242  14.32703
 H  22.65426  -0.64532  15.03224
 H  21.40726  -0.05316  12.10829
 H  20.94451  0.91115  13.65574
 C  21.76830  -3.57674  13.15069
 C  21.07536  -4.44640  14.42982
 C  19.63349  -3.77703  14.98858
 H  19.86794  -2.87251  15.67036
 H  19.04968  -4.57478  15.59065
 H  18.99588  -3.43101  14.08705
 H  20.85782  -5.51652  14.06369
 H  21.82308  -4.47936  15.30417
 H  20.90873  -3.08553  12.55382
 H  22.28850  -4.35670  12.46922
 C  -16.94717  0.79345  -13.29374
 C  -18.07476  0.24508  -13.90671
 C  -19.22540  1.09330  -13.87828
 C  -19.00528  2.31763  -13.23962
 S  -17.42087  2.28667  -12.75062
 H  -18.52437  -0.79561  -13.42912
 C  -20.57338  0.54233  -14.56595
 C  -22.14834  0.91574  -14.17611
 C  -22.79811  -0.00290  -12.93084
 H  -22.46964  -1.10135  -13.09052
 H  -22.34581  0.37762  -11.93698
 H  -22.19724  2.02342  -13.87800
 H  -22.79418  0.75076  -15.12242
 H  -20.54990  -0.63466  -14.53416
 H  -20.48852  0.82157  -15.70444
 C  -24.42203  0.07005  -12.86895
 C  -25.05927  1.48062  -12.20412
 C  -25.40816  2.64218  -13.37328
 H  -24.43502  2.95404  -13.91427
 H  -25.88288  3.56509  -12.86166
 H  -26.15305  2.19706  -14.13948
 H  -26.02781  1.22427  -11.63725
 H  -24.28188  1.91368  -11.47789
 H  -24.85254  -0.04781  -13.93677
 H  -24.80640  -0.81310  -12.22315
 H  23.22573  4.15166  10.38052
 H  24.49732  1.63865  14.04840
 H  -15.98982  0.34901  -13.19602
 H  -19.70467  3.10142  -13.09775
*
