# ================================================================
# Orca input file made by Matty Jones
# ================================================================
! ZINDO/S 
! NOPOP
! NOMOPRINT
* xyz 0   1
 C  -10.84302  -7.09372  6.49429
 C  -11.62384  -8.02275  7.18358
 C  -10.87002  -8.95892  7.95792
 C  -9.48697  -8.76814  7.87967
 S  -9.27262  -7.46949  6.87074
 H  -12.76562  -8.02495  7.16994
 C  -11.49105  -10.17843  8.84425
 C  -12.74813  -10.11886  10.01763
 C  -13.08511  -11.61802  10.80498
 H  -13.16039  -11.34746  11.93001
 H  -12.12491  -12.25006  10.64840
 H  -13.70998  -9.78779  9.48556
 H  -12.45350  -9.35821  10.82332
 H  -10.60647  -10.66862  9.43548
 H  -11.88906  -10.98328  8.09036
 C  -14.35355  -12.59220  10.45885
 C  -14.40803  -14.08507  11.28232
 C  -13.79901  -15.39175  10.40793
 H  -12.67600  -15.22297  10.19243
 H  -14.37989  -15.47808  9.40965
 H  -13.93914  -16.36385  11.01991
 H  -13.78514  -13.98386  12.24657
 H  -15.50387  -14.31027  11.55367
 H  -14.36507  -12.82392  9.32828
 H  -15.33068  -12.03779  10.73701
 C  16.61196  10.99818  -11.95000
 C  15.71915  10.01239  -11.52691
 C  14.66057  10.49997  -10.69870
 C  14.71778  11.87772  -10.46664
 S  16.05628  12.41259  -11.28685
 H  15.93010  8.91537  -11.17307
 C  13.57948  9.41564  -10.18368
 C  11.94915  9.62767  -9.75487
 C  11.18599  11.09782  -9.43806
 H  11.75779  11.96356  -9.93306
 H  10.10580  11.06408  -9.83992
 H  11.34763  9.17747  -10.64096
 H  11.78035  8.94412  -8.83631
 H  14.03843  8.90758  -9.23170
 H  13.51694  8.57761  -11.00423
 C  11.19748  11.21591  -7.81294
 C  10.48590  12.55875  -7.12432
 C  9.72434  13.63486  -8.16337
 H  9.18259  13.04297  -8.99854
 H  10.51772  14.33229  -8.63724
 H  8.94328  14.27323  -7.60148
 H  9.77757  12.17377  -6.31248
 H  11.35981  13.07518  -6.61517
 H  10.63535  10.29574  -7.37644
 H  12.29378  11.16316  -7.43969
 H  -11.18241  -6.31261  5.86320
 H  -8.73335  -9.33491  8.36386
 H  17.46535  10.86972  -12.56549
 H  14.04624  12.45863  -9.88770
*
