# ================================================================
# Orca input file made by Matty Jones
# ================================================================
! ZINDO/S 
! NOPOP
! NOMOPRINT
* xyz 0   1
 C  -11.04274  -7.01638  6.46413
 C  -11.81065  -7.98273  7.11558
 C  -11.04529  -8.92449  7.87162
 C  -9.66609  -8.70065  7.81688
 S  -9.46893  -7.36805  6.84955
 H  -12.95078  -8.02589  7.06893
 C  -11.64792  -10.17462  8.72882
 C  -12.94117  -10.12836  9.85388
 C  -13.27380  -11.61930  10.64953
 H  -13.45507  -11.32173  11.75701
 H  -12.27101  -12.19958  10.59426
 H  -13.89196  -9.82322  9.28443
 H  -12.68785  -9.34950  10.65672
 H  -10.76454  -10.63346  9.35747
 H  -11.97596  -10.98520  7.97167
 C  -14.45808  -12.66646  10.23939
 C  -14.47542  -14.15334  11.07675
 C  -13.11552  -14.52309  12.00045
 H  -12.18031  -14.51108  11.31857
 H  -13.24082  -15.57949  12.45768
 H  -12.99443  -13.74595  12.84722
 H  -14.61876  -14.99374  10.30224
 H  -15.37970  -14.13525  11.79319
 H  -14.37284  -12.91717  9.11519
 H  -15.48446  -12.16817  10.43338
 C  16.78262  10.71125  -11.14799
 C  15.55674  10.19509  -11.57072
 C  14.42696  10.73316  -10.87909
 C  14.76242  11.67896  -9.90532
 S  16.41596  11.79803  -9.95067
 H  15.20676  9.97370  -12.69729
 C  12.92259  10.25106  -11.25807
 C  11.68262  9.83449  -10.13919
 C  11.87809  9.76882  -8.45726
 H  11.00953  9.14283  -8.02077
 H  12.87823  9.24302  -8.22507
 H  10.81362  10.56362  -10.34783
 H  11.34785  8.76698  -10.43936
 H  13.02897  9.29060  -11.91590
 H  12.44093  11.08291  -11.92621
 C  11.85074  11.26259  -7.82079
 C  10.39744  12.02247  -7.44869
 C  9.91589  13.11148  -8.64764
 H  8.76259  13.11407  -8.73490
 H  10.37366  12.79953  -9.66406
 H  10.28113  14.17637  -8.38198
 H  9.62242  11.17828  -7.36751
 H  10.51727  12.54633  -6.43559
 H  12.54197  11.32435  -6.90135
 H  12.25098  11.89603  -8.70120
 H  -11.39203  -6.22458  5.85204
 H  -8.90578  -9.26463  8.29381
 H  17.74511  10.46121  -11.51499
 H  14.09879  12.20887  -9.27098
*
