# ================================================================
# Orca input file made by Matty Jones
# ================================================================
! ZINDO/S 
! NOPOP
! NOMOPRINT
* xyz 0   1
 C  -19.24927  -1.32836  -31.22178
 C  -20.03009  -2.25740  -30.53249
 C  -19.27626  -3.19356  -29.75815
 C  -17.89322  -3.00279  -29.83640
 S  -17.67886  -1.70413  -30.84533
 H  -21.17186  -2.25959  -30.54612
 C  -19.89729  -4.41307  -28.87182
 C  -21.15438  -4.35350  -27.69844
 C  -21.49135  -5.85266  -26.91109
 H  -21.56664  -5.58210  -25.78606
 H  -20.53116  -6.48471  -27.06767
 H  -22.11622  -4.02243  -28.23051
 H  -20.85975  -3.59286  -26.89275
 H  -19.01272  -4.90326  -28.28059
 H  -20.29531  -5.21792  -29.62571
 C  -22.75980  -6.82684  -27.25722
 C  -22.81427  -8.31971  -26.43375
 C  -22.20525  -9.62639  -27.30813
 H  -21.08225  -9.45761  -27.52363
 H  -22.78613  -9.71272  -28.30642
 H  -22.34538  -10.59850  -26.69616
 H  -22.19138  -8.21850  -25.46950
 H  -23.91011  -8.54491  -26.16240
 H  -22.77131  -7.05856  -28.38778
 H  -23.73692  -6.27243  -26.97905
 C  19.56955  3.06692  24.41996
 C  20.17739  3.50546  25.59729
 C  19.35883  4.36858  26.39055
 C  18.09827  4.61282  25.83679
 S  18.06332  3.75999  24.41486
 H  21.09986  3.00852  26.07695
 C  20.03778  4.95002  27.72421
 C  21.58127  5.52467  27.38363
 C  22.63016  6.11846  28.55488
 H  22.52011  7.27200  28.57339
 H  23.70929  5.86672  28.21472
 H  22.16776  4.66868  26.87532
 H  21.42266  6.37760  26.61860
 H  19.37894  5.79249  28.18412
 H  20.09756  4.09521  28.51266
 C  22.38616  5.52479  30.04385
 C  21.23554  6.40204  30.90283
 C  21.91192  7.75014  31.64326
 H  22.67482  7.40958  32.44294
 H  21.07317  8.37297  32.14128
 H  22.44829  8.39213  30.84355
 H  20.40497  6.74526  30.18365
 H  20.78897  5.71865  31.71570
 H  23.38108  5.54880  30.63579
 H  22.02765  4.42629  29.97786
 H  -19.58865  -0.54725  -31.85287
 H  -17.13960  -3.56955  -29.35221
 H  19.98354  2.42593  23.68420
 H  17.32660  5.21663  26.24119
*
