# ================================================================
# Orca input file made by Matty Jones
# ================================================================
! ZINDO/S 
! NOPOP
! NOMOPRINT
* xyz 0   1
 C  4.66766  -5.61133  -4.97977
 C  5.84450  -5.07112  -4.45907
 C  5.64016  -3.95073  -3.59465
 C  4.29518  -3.60449  -3.43196
 S  3.44160  -4.68758  -4.35324
 H  6.86111  -5.52996  -4.68792
 C  7.01631  -3.31141  -3.03562
 C  7.39233  -1.65566  -3.06419
 C  6.85801  -0.76476  -1.73293
 H  5.77134  -1.05096  -1.49626
 H  6.91521  0.36400  -1.97030
 H  8.54340  -1.55968  -3.11308
 H  6.92808  -1.20126  -4.01220
 H  7.05711  -3.57957  -1.91715
 H  7.94270  -3.84297  -3.54207
 C  7.79361  -1.11977  -0.45395
 C  7.32329  -0.37640  0.98136
 C  8.23349  0.98440  1.34650
 H  7.96146  1.34623  2.41191
 H  8.01115  1.82193  0.58016
 H  9.35778  0.70933  1.30889
 H  6.22025  -0.05327  0.87738
 H  7.41994  -1.13347  1.84270
 H  8.88420  -0.80431  -0.67965
 H  7.77497  -2.26298  -0.27195
 C  -1.98552  3.03204  0.26957
 C  -3.13696  2.27129  0.47779
 C  -4.17852  2.96570  1.16859
 C  -3.84788  4.28141  1.50754
 S  -2.30591  4.51305  0.94265
 H  -3.19171  1.15546  0.24903
 C  -5.49985  2.05336  1.39009
 C  -7.12916  2.49804  1.31197
 C  -7.81002  2.85299  2.80595
 H  -7.00062  3.31343  3.48810
 H  -8.65832  3.61918  2.65063
 H  -7.21258  3.43547  0.64483
 H  -7.72153  1.63527  0.82836
 H  -5.40469  1.56993  2.45650
 H  -5.44711  1.16839  0.62353
 C  -8.39502  1.48088  3.47764
 C  -9.99679  1.08499  3.09609
 C  -10.22628  0.11677  1.73654
 H  -10.99601  -0.71160  1.98654
 H  -9.22387  -0.36894  1.42569
 H  -10.62973  0.76734  0.86842
 H  -10.57714  2.06761  2.93574
 H  -10.43872  0.52492  4.00283
 H  -7.73785  0.58586  3.15135
 H  -8.33346  1.57493  4.62925
 H  4.57685  -6.43788  -5.63716
 H  3.90324  -2.81505  -2.84309
 H  -1.09415  2.72726  -0.21641
 H  -4.45555  4.98369  2.01855
*
