# ================================================================
# Orca input file made by Matty Jones
# ================================================================
! ZINDO/S 
! NOPOP
! NOMOPRINT
* xyz 0   1
 C  -9.30663  -9.62407  -1.97070
 C  -10.12958  -10.50150  -1.26305
 C  -9.46146  -11.21562  -0.22001
 C  -8.10410  -10.90049  -0.10346
 S  -7.80622  -9.77077  -1.28051
 H  -11.24795  -10.62169  -1.45268
 C  -10.20660  -12.27855  0.73564
 C  -11.42208  -13.39754  0.31479
 C  -12.18746  -13.56730  -1.18514
 H  -12.26614  -12.54606  -1.70621
 H  -11.58365  -14.29620  -1.84248
 H  -10.96433  -14.44230  0.52895
 H  -12.26072  -13.20782  1.08947
 H  -10.63623  -11.69446  1.65671
 H  -9.40549  -13.02396  1.12901
 C  -13.67801  -14.16358  -0.86973
 C  -14.78571  -14.33823  -2.12451
 C  -14.85706  -15.88231  -2.77731
 H  -15.85754  -16.00392  -3.34783
 H  -14.80313  -16.66459  -1.92624
 H  -13.97211  -16.03557  -3.50548
 H  -14.50186  -13.60056  -2.96390
 H  -15.83145  -14.06989  -1.71814
 H  -13.55114  -15.20889  -0.38470
 H  -14.18854  -13.46783  -0.09319
 C  16.67059  12.69743  1.31355
 C  15.54241  11.98050  1.71493
 C  14.46363  12.79869  2.17435
 C  14.74137  14.16860  2.13554
 S  16.28536  14.29367  1.54318
 H  15.06050  10.96787  1.33764
 C  13.00911  12.31589  2.68747
 C  11.98590  11.72837  1.47021
 C  11.22123  13.07335  0.72749
 H  11.96944  13.95364  0.84991
 H  11.18635  12.80349  -0.40072
 H  12.59310  11.15731  0.68488
 H  11.17856  11.05884  1.93422
 H  12.43362  13.10635  3.29213
 H  13.16378  11.40626  3.41249
 C  9.74981  13.64023  1.14477
 C  8.51049  13.03306  0.16275
 C  8.29438  13.90757  -1.26333
 H  8.07553  15.01455  -1.01089
 H  7.40615  13.45779  -1.85329
 H  9.25761  13.83618  -1.90106
 H  7.52595  13.07374  0.75911
 H  8.75689  11.94229  -0.10815
 H  9.51181  13.34554  2.23632
 H  9.73386  14.79325  1.05963
 H  -9.58262  -8.99627  -2.77896
 H  -7.41072  -11.30001  0.59167
 H  17.58161  12.30434  0.94056
 H  14.09947  14.96119  2.42428
*
