# ================================================================
# Orca input file made by Matty Jones
# ================================================================
! ZINDO/S 
! NOPOP
! NOMOPRINT
* xyz 0   1
 C  24.18459  -2.63688  8.39776
 C  23.88482  -3.99923  8.35256
 C  24.18070  -4.70259  9.56169
 C  24.71681  -3.89154  10.56673
 S  24.79542  -2.36830  9.91560
 H  23.45290  -4.52878  7.42565
 C  23.87396  -6.28904  9.65425
 C  23.52444  -7.18082  11.06301
 C  21.99102  -7.35908  11.76178
 H  22.13535  -7.46483  12.90419
 H  21.38813  -6.39803  11.54902
 H  23.78336  -8.27424  10.72334
 H  24.26066  -6.94157  11.88610
 H  24.80242  -6.84371  9.19593
 H  22.96626  -6.52242  8.95699
 C  21.19963  -8.65915  11.18480
 C  21.58300  -10.14026  11.91351
 C  20.59844  -10.62125  13.18950
 H  21.12814  -10.39161  14.19234
 H  20.40404  -11.76032  13.10761
 H  19.59104  -10.05479  13.14196
 H  22.66439  -10.06954  12.30796
 H  21.52894  -10.95325  11.09740
 H  20.06151  -8.49676  11.32420
 H  21.41629  -8.76792  10.05364
 C  -24.54418  2.37479  -10.58013
 C  -23.77865  3.54174  -10.56925
 C  -24.36391  4.61709  -9.83077
 C  -25.59780  4.29766  -9.25561
 S  -25.89553  2.72369  -9.68501
 H  -22.75292  3.64659  -11.05830
 C  -23.43752  5.95485  -9.86465
 C  -23.85693  7.57297  -10.14624
 C  -22.41513  8.50057  -10.22629
 H  -22.67427  9.57931  -9.91101
 H  -21.65274  8.05824  -9.48322
 H  -24.41752  7.65370  -11.14433
 H  -24.49827  7.96287  -9.28173
 H  -22.90096  5.99543  -8.82647
 H  -22.58567  5.78097  -10.65905
 C  -21.78006  8.50393  -11.73531
 C  -20.29573  9.27754  -12.00564
 C  -20.38631  10.89169  -12.46962
 H  -21.36832  11.07544  -13.05299
 H  -19.48223  11.14498  -13.14766
 H  -20.36219  11.56252  -11.52705
 H  -19.67689  9.21332  -11.03637
 H  -19.75185  8.70262  -12.84584
 H  -21.63239  7.40569  -12.07372
 H  -22.54492  9.00215  -12.44910
 H  24.05010  -1.92419  7.62473
 H  25.01130  -4.18820  11.54082
 H  -24.31087  1.45865  -11.05955
 H  -26.21387  4.92929  -8.66816
*
