# ================================================================
# Orca input file made by Matty Jones
# ================================================================
! ZINDO/S 
! NOPOP
! NOMOPRINT
* xyz 0   1
 C  -14.35383  -7.60126  4.38965
 C  -14.65359  -8.96361  4.34445
 C  -14.35771  -9.66697  5.55359
 C  -13.82160  -8.85592  6.55862
 S  -13.74299  -7.33267  5.90750
 H  -15.08551  -9.49316  3.41754
 C  -14.66445  -11.25341  5.64614
 C  -15.01397  -12.14520  7.05491
 C  -16.54740  -12.32346  7.75367
 H  -16.40306  -12.42920  8.89609
 H  -17.15029  -11.36240  7.54091
 H  -14.75505  -13.23861  6.71524
 H  -14.27776  -11.90595  7.87800
 H  -13.73599  -11.80808  5.18783
 H  -15.57215  -11.48679  4.94889
 C  -17.33878  -13.62353  7.17670
 C  -16.95542  -15.10464  7.90540
 C  -17.93997  -15.58562  9.18140
 H  -17.41027  -15.35598  10.18423
 H  -18.13437  -16.72469  9.09950
 H  -18.94737  -15.01917  9.13386
 H  -15.87403  -15.03391  8.29986
 H  -17.00947  -15.91763  7.08930
 H  -18.47690  -13.46113  7.31609
 H  -17.12212  -13.73230  6.04554
 C  13.88600  8.56496  -5.07334
 C  13.98552  9.69981  -5.87963
 C  13.49031  10.89449  -5.26989
 C  12.99727  10.70201  -3.97560
 S  13.19718  9.08654  -3.65822
 H  14.17605  9.62035  -7.00349
 C  13.60067  12.24500  -6.15345
 C  15.16110  12.28250  -6.89348
 C  15.70268  13.47125  -7.97056
 H  15.89737  14.42943  -7.35650
 H  14.85164  13.67262  -8.72549
 H  15.90736  12.27740  -6.01163
 H  15.27735  11.30434  -7.49023
 H  12.80716  12.24813  -6.99578
 H  13.47702  13.19635  -5.50528
 C  17.06757  13.06567  -8.78137
 C  18.54484  13.81942  -8.44063
 C  19.56935  13.10646  -7.31562
 H  19.01021  12.97752  -6.31191
 H  20.49125  13.79142  -7.16144
 H  19.91833  12.07534  -7.70845
 H  19.12698  13.87716  -9.43812
 H  18.31231  14.88976  -8.08094
 H  16.87458  13.22396  -9.91377
 H  17.25952  11.93162  -8.61262
 H  -14.48831  -6.88856  3.61662
 H  -13.52711  -9.15258  7.53272
 H  14.18726  7.57777  -5.31476
 H  12.58257  11.43514  -3.33206
*
