# ================================================================
# Orca input file made by Matty Jones
# ================================================================
! ZINDO/S 
! NOPOP
! NOMOPRINT
* xyz 0   1
 C  -1.56496  1.92702  -3.33574
 C  -0.39096  2.56254  -2.92863
 C  0.17112  2.03505  -1.72444
 C  -0.56276  0.97766  -1.17792
 S  -1.85033  0.75419  -2.19902
 H  0.07541  3.44394  -3.48794
 C  1.54042  2.58903  -1.05372
 C  2.02293  4.21897  -0.71877
 C  2.89286  5.18325  -1.83272
 H  3.94275  5.32564  -1.35579
 H  3.01496  4.55154  -2.79208
 H  1.05552  4.78940  -0.47026
 H  2.68341  4.15019  0.22453
 H  1.63636  2.09756  0.00099
 H  2.42770  2.18585  -1.69693
 C  2.33535  6.66356  -2.23248
 C  2.92824  7.31335  -3.69174
 C  4.32947  8.24861  -3.72680
 H  5.25310  7.55482  -3.78461
 H  4.38669  8.90392  -2.77634
 H  4.30200  8.92845  -4.66554
 H  3.10112  6.42185  -4.40438
 H  2.08122  7.97476  -4.11623
 H  1.18413  6.62915  -2.31650
 H  2.62467  7.41306  -1.39900
 C  -0.41493  -0.10701  0.05306
 C  -1.30420  -1.13448  0.37151
 C  -0.91431  -1.91368  1.50512
 C  0.28891  -1.49940  2.08474
 S  0.79985  -0.20898  1.17690
 H  -2.26273  -1.35047  -0.21191
 C  -1.87873  -3.13471  1.96605
 C  -1.53228  -4.51468  2.92155
 C  -0.86512  -5.99860  2.44313
 H  -0.16680  -5.78933  1.54565
 H  -0.22295  -6.38633  3.32599
 H  -2.62910  -4.84279  3.20648
 H  -1.06999  -4.20569  3.91169
 H  -2.31699  -3.61353  0.98774
 H  -2.77974  -2.64922  2.53519
 C  -1.95595  -7.13711  2.03015
 C  -2.64889  -8.00678  3.30927
 C  -4.09076  -7.33740  3.86803
 H  -3.85631  -6.43289  4.54981
 H  -4.67457  -8.13516  4.47010
 H  -4.72837  -6.99139  2.96650
 H  -2.86644  -9.07690  2.94314
 H  -1.90117  -8.03974  4.18362
 H  -2.81553  -6.64591  1.43327
 H  -1.43575  -7.91707  1.34867
 H  -2.15065  2.14762  -4.19125
 H  0.77307  -1.92172  2.92785
*
