# ================================================================
# Orca input file made by Matty Jones
# ================================================================
! ZINDO/S 
! NOPOP
! NOMOPRINT
* xyz 0   1
 C  -11.44929  29.84696  -3.56641
 C  -12.27224  28.96953  -2.85875
 C  -11.60413  28.25541  -1.81572
 C  -10.24677  28.57054  -1.69917
 S  -9.94889  29.70026  -2.87622
 H  -13.39061  28.84934  -3.04839
 C  -12.34927  27.19248  -0.86007
 C  -13.56474  26.07349  -1.28092
 C  -14.33012  25.90372  -2.78085
 H  -14.40880  26.92497  -3.30192
 H  -13.72632  25.17483  -3.43819
 H  -13.10700  25.02873  -1.06676
 H  -14.40338  26.26320  -0.50624
 H  -12.77890  27.77657  0.06100
 H  -11.54816  26.44707  -0.46670
 C  -15.82068  25.30745  -2.46544
 C  -16.92837  25.13280  -3.72022
 C  -16.99972  23.58872  -4.37301
 H  -18.00020  23.46711  -4.94354
 H  -16.94579  22.80644  -3.52195
 H  -16.11478  23.43546  -5.10119
 H  -16.64452  25.87046  -4.55961
 H  -17.97411  25.40114  -3.31385
 H  -15.69380  24.26214  -1.98041
 H  -16.33120  26.00320  -1.68890
 C  11.96352  -30.33917  1.38049
 C  12.61079  -29.23197  1.93097
 C  11.74123  -28.33048  2.62051
 C  10.40057  -28.72785  2.61447
 S  10.36217  -30.15362  1.76821
 H  13.74079  -29.07404  1.88571
 C  12.23801  -26.98202  3.36167
 C  13.43597  -25.99056  2.69294
 C  14.93703  -26.44888  3.33646
 H  15.00238  -27.60222  3.27874
 H  14.91678  -26.14189  4.45507
 H  13.45546  -26.12875  1.55366
 H  13.22535  -24.89429  2.96297
 H  11.31953  -26.26819  3.50081
 H  12.63539  -27.25593  4.42198
 C  16.25580  -25.79996  2.64409
 C  16.67507  -24.22627  3.08848
 C  15.99849  -23.07443  2.06281
 H  15.49799  -23.59614  1.15899
 H  16.83180  -22.36584  1.68331
 H  15.20439  -22.46506  2.64328
 H  16.31078  -24.02883  4.16224
 H  17.82232  -24.12833  3.04453
 H  16.12822  -25.82211  1.49440
 H  17.16710  -26.46593  2.91690
 H  -11.72529  30.47476  -4.37467
 H  -9.55339  28.17101  -1.00404
 H  12.40301  -31.13162  0.83050
 H  9.58053  -28.22341  3.05794
*
