# ================================================================
# Orca input file made by Matty Jones
# ================================================================
! ZINDO/S 
! NOPOP
! NOMOPRINT
* xyz 0   1
 C  0.40705  5.41491  -5.08938
 C  -0.15378  4.22743  -4.61691
 C  0.38138  3.78586  -3.36676
 C  1.36978  4.62892  -2.84945
 S  1.52733  5.85902  -3.95058
 H  -0.98186  3.66083  -5.16279
 C  -0.13225  2.41544  -2.68266
 C  -1.78581  1.98612  -2.61846
 C  -2.27583  1.03371  -3.92903
 H  -2.09127  1.64949  -4.88978
 H  -1.57663  0.10968  -3.94826
 H  -1.96743  1.39005  -1.65157
 H  -2.41081  2.94993  -2.61086
 H  0.12568  2.40439  -1.55058
 H  0.40793  1.51958  -3.18350
 C  -3.82047  0.51419  -3.90567
 C  -4.66369  0.85949  -5.32767
 C  -6.25487  0.31469  -5.32700
 H  -6.32296  -0.68185  -4.74317
 H  -6.60174  0.14928  -6.41914
 H  -6.92927  1.10832  -4.82243
 H  -4.10989  0.34963  -6.20075
 H  -4.66586  2.00042  -5.48361
 H  -3.84466  -0.63141  -3.75012
 H  -4.38871  1.01811  -3.03351
 C  3.53520  2.33488  1.82827
 C  2.64593  1.30741  2.14671
 C  3.03583  0.52821  3.28033
 C  4.23904  0.94248  3.85994
 S  4.74998  2.23291  2.95210
 H  1.68740  1.09141  1.56330
 C  2.07140  -0.69282  3.74126
 C  2.41785  -2.07280  4.69676
 C  3.08501  -3.55671  4.21834
 H  3.78333  -3.34745  3.32086
 H  3.72718  -3.94444  5.10120
 H  1.32103  -2.40091  4.98169
 H  2.88014  -1.76380  5.68689
 H  1.63314  -1.17164  2.76295
 H  1.17039  -0.20734  4.31040
 C  1.99418  -4.69523  3.80535
 C  1.30124  -5.56489  5.08448
 C  -0.14063  -4.89552  5.64324
 H  0.09382  -3.99100  6.32501
 H  -0.72444  -5.69327  6.24531
 H  -0.77824  -4.54950  4.74171
 H  1.08370  -6.63501  4.71835
 H  2.04896  -5.59785  5.95883
 H  1.13460  -4.20402  3.20848
 H  2.51438  -5.47519  3.12388
 H  0.16735  5.92527  -5.98697
 H  1.90606  4.50726  -1.94325
 H  3.45161  3.03317  1.03517
 H  4.72320  0.52016  4.70305
*
