# ================================================================
# Orca input file made by Matty Jones
# ================================================================
! ZINDO/S 
! NOPOP
! NOMOPRINT
* xyz 0   1
 C  -12.64707  -10.20688  0.17968
 C  -13.53634  -11.23435  0.49813
 C  -13.14645  -12.01355  1.63174
 C  -11.94323  -11.59927  2.21136
 S  -11.43229  -10.30885  1.30352
 H  -14.49488  -11.45034  -0.08529
 C  -14.11087  -13.23458  2.09267
 C  -13.76442  -14.61455  3.04817
 C  -13.09726  -16.09847  2.56975
 H  -12.39895  -15.88921  1.67227
 H  -12.45509  -16.48620  3.45261
 H  -14.86124  -14.94266  3.33310
 H  -13.30213  -14.30556  4.03831
 H  -14.54913  -13.71340  1.11436
 H  -15.01188  -12.74909  2.66182
 C  -14.18809  -17.23698  2.15677
 C  -14.88103  -18.10665  3.43590
 C  -16.32290  -17.43727  3.99465
 H  -16.08845  -16.53276  4.67643
 H  -16.90671  -18.23503  4.59672
 H  -16.96051  -17.09126  3.09312
 H  -15.09858  -19.17677  3.06976
 H  -14.13331  -18.13961  4.31024
 H  -15.04767  -16.74578  1.55990
 H  -13.66789  -18.01694  1.47529
 C  12.07480  11.28156  -4.78404
 C  12.67247  11.97643  -3.73149
 C  11.83582  12.97416  -3.14090
 C  10.57112  13.06761  -3.73007
 S  10.55486  11.92689  -4.93379
 H  13.73677  11.78774  -3.37593
 C  12.25954  13.93984  -1.91426
 C  13.58439  14.95295  -2.20211
 C  13.99369  16.05036  -0.97523
 H  13.02806  16.59391  -0.64731
 H  14.40997  15.45071  -0.08083
 H  14.50362  14.28883  -2.39772
 H  13.33923  15.56665  -3.14666
 H  11.37781  14.59482  -1.53887
 H  12.58127  13.26472  -1.00558
 C  15.09315  17.14181  -1.48480
 C  16.69707  16.69783  -1.21844
 C  17.30524  15.67696  -2.40789
 H  16.53761  15.56983  -3.26689
 H  17.50811  14.63674  -1.94074
 H  18.29279  16.11341  -2.82377
 H  17.33441  17.65921  -1.21008
 H  16.77660  16.17654  -0.19526
 H  14.91712  18.14415  -0.93180
 H  14.96118  17.32846  -2.61924
 H  -12.73066  -9.50859  -0.61341
 H  -11.45907  -12.02159  3.05447
 H  12.50242  10.50501  -5.36516
 H  9.78698  13.72905  -3.46321
*
