# ================================================================
# Orca input file made by Matty Jones
# ================================================================
! ZINDO/S 
! NOPOP
! NOMOPRINT
* xyz 0   1
 C  -18.60532  -8.18807  8.08927
 C  -17.22214  -8.00209  8.09937
 C  -16.55144  -8.66708  9.17279
 C  -17.40936  -9.38177  10.01453
 S  -18.93118  -9.15645  9.39508
 H  -16.66430  -7.49983  7.24084
 C  -14.94814  -8.49889  9.26271
 C  -14.49196  -6.86444  9.07316
 C  -12.87352  -6.39323  9.06097
 H  -12.82065  -5.36732  9.59713
 H  -12.29309  -7.16565  9.69939
 H  -14.95089  -6.48483  8.08750
 H  -14.99073  -6.30123  9.95184
 H  -14.54812  -8.82038  10.30491
 H  -14.42212  -9.12634  8.44514
 C  -12.14322  -6.25597  7.60662
 C  -12.97709  -6.63534  6.18041
 C  -13.79137  -5.36086  5.43775
 H  -13.24257  -5.07607  4.45877
 H  -13.81874  -4.44674  6.14602
 H  -14.87279  -5.69202  5.19017
 H  -12.19616  -7.02977  5.42604
 H  -13.73429  -7.47247  6.40710
 H  -11.79360  -5.15648  7.48610
 H  -11.20063  -6.93130  7.61421
 C  12.19815  3.88268  -9.69455
 C  13.07673  4.82012  -9.14942
 C  12.44771  5.78881  -8.30669
 C  11.06546  5.61542  -8.18577
 S  10.69947  4.29132  -9.11484
 H  14.19949  4.82214  -9.34304
 C  13.23777  6.98966  -7.58123
 C  14.25250  7.91874  -8.55215
 C  14.90948  9.21770  -7.69410
 H  14.04198  9.70657  -7.09962
 H  15.27670  9.98538  -8.48123
 H  15.09802  7.25578  -8.95361
 H  13.63254  8.33688  -9.42850
 H  12.58068  7.73584  -6.99469
 H  13.94421  6.49969  -6.77248
 C  16.12565  8.88403  -6.67134
 C  17.65385  8.77944  -7.37127
 C  18.04732  7.19668  -7.78400
 H  19.06894  7.18826  -8.32688
 H  17.23552  6.75796  -8.47969
 H  18.11506  6.56124  -6.81844
 H  17.67590  9.42527  -8.32432
 H  18.43300  9.17062  -6.61881
 H  15.91218  7.88138  -6.13373
 H  16.17799  9.71979  -5.86890
 H  -19.30085  -7.79344  7.39349
 H  -17.14282  -9.94882  10.86952
 H  12.43834  3.07894  -10.34256
 H  10.39247  6.20653  -7.61896
*
