# ================================================================
# Orca input file made by Matty Jones
# ================================================================
! ZINDO/S 
! NOPOP
! NOMOPRINT
* xyz 0   1
 C  0.20112  -6.23201  -4.92326
 C  1.39377  -5.67643  -4.45761
 C  1.21648  -4.53263  -3.61824
 C  -0.12293  -4.18326  -3.42010
 S  -1.00493  -5.29234  -4.28175
 H  2.41843  -6.10816  -4.70997
 C  2.60561  -3.89420  -3.08228
 C  3.04295  -2.26118  -3.12433
 C  2.58007  -1.34530  -1.79202
 H  1.49093  -1.58924  -1.51649
 H  2.66184  -0.22772  -2.07647
 H  4.19396  -2.20971  -3.20750
 H  2.57635  -1.79594  -4.06998
 H  2.68817  -4.17840  -1.94718
 H  3.49806  -4.43175  -3.61736
 C  3.55328  -1.67314  -0.52784
 C  3.20899  -0.82728  0.88654
 C  4.19782  0.50999  1.12324
 H  3.85014  1.37623  0.44097
 H  5.29113  0.22572  0.86797
 H  4.13446  0.83500  2.23240
 H  2.11687  -0.45957  0.83145
 H  3.32813  -1.54251  1.78163
 H  4.64980  -1.44468  -0.81976
 H  3.47115  -2.80013  -0.27300
 C  -3.66344  0.32650  -1.84985
 C  -3.07175  0.69373  -0.64033
 C  -3.85148  1.60489  0.13818
 C  -5.06499  1.95892  -0.45963
 S  -5.10873  1.13752  -1.89970
 H  -2.27573  0.07810  -0.12300
 C  -3.16662  2.03878  1.52597
 C  -1.55934  2.50787  1.20253
 C  -0.50454  2.82158  2.46844
 H  0.56017  2.85386  2.00214
 H  -0.54993  1.90001  3.17097
 H  -1.04550  1.69507  0.56813
 H  -1.63843  3.47543  0.57310
 H  -3.72468  2.94121  1.99276
 H  -3.16199  1.15987  2.27874
 C  -0.72329  4.18023  3.32019
 C  -1.56674  3.85963  4.75163
 C  -3.23882  3.90386  4.61101
 H  -3.54435  4.69316  3.82210
 H  -3.69498  4.18443  5.63759
 H  -3.62575  2.86118  4.29206
 H  -1.26530  2.81282  5.13046
 H  -1.24868  4.64983  5.52876
 H  -1.32493  4.95154  2.70599
 H  0.29866  4.64046  3.60272
 H  0.08983  -7.07660  -5.55404
 H  -0.49634  -3.37812  -2.84052
 H  -3.27149  -0.33204  -2.58218
 H  -5.80252  2.61495  -0.07326
*
