# ================================================================
# Orca input file made by Matty Jones
# ================================================================
! ZINDO/S 
! NOPOP
! NOMOPRINT
* xyz 0   1
 C  -15.08592  -6.85858  8.03292
 C  -15.86674  -7.78762  8.72221
 C  -15.11291  -8.72378  9.49655
 C  -13.72987  -8.53301  9.41830
 S  -13.51551  -7.23435  8.40937
 H  -17.00851  -7.78981  8.70858
 C  -15.73394  -9.94329  10.38288
 C  -16.99103  -9.88372  11.55626
 C  -17.32800  -11.38288  12.34361
 H  -17.40329  -11.11232  13.46864
 H  -16.36781  -12.01493  12.18703
 H  -17.95287  -9.55265  11.02419
 H  -16.69640  -9.12307  12.36195
 H  -14.84937  -10.43348  10.97411
 H  -16.13196  -10.74814  9.62899
 C  -18.59645  -12.35706  11.99748
 C  -18.65092  -13.84993  12.82095
 C  -18.04190  -15.15661  11.94656
 H  -16.91890  -14.98783  11.73106
 H  -18.62278  -15.24294  10.94828
 H  -18.18203  -16.12872  12.55854
 H  -18.02803  -13.74872  13.78520
 H  -19.74676  -14.07513  13.09230
 H  -18.60796  -12.58878  10.86692
 H  -19.57357  -11.80265  12.27564
 C  14.24288  7.67973  -12.66981
 C  15.12146  8.61717  -12.12468
 C  14.49245  9.58586  -11.28195
 C  13.11020  9.41247  -11.16103
 S  12.74420  8.08837  -12.09010
 H  16.24422  8.61919  -12.31830
 C  15.28250  10.78672  -10.55649
 C  16.29724  11.71579  -11.52741
 C  16.95421  13.01475  -10.66936
 H  16.08672  13.50362  -10.07488
 H  17.32144  13.78243  -11.45649
 H  17.14275  11.05283  -11.92887
 H  15.67727  12.13393  -12.40376
 H  14.62541  11.53289  -9.96995
 H  15.98894  10.29674  -9.74774
 C  18.17038  12.68108  -9.64660
 C  19.69859  12.57650  -10.34653
 C  20.09206  10.99373  -10.75926
 H  21.11368  10.98531  -11.30214
 H  19.28026  10.55501  -11.45495
 H  20.15980  10.35829  -9.79370
 H  19.72064  13.22232  -11.29958
 H  20.47774  12.96767  -9.59407
 H  17.95692  11.67844  -9.10899
 H  18.22273  13.51684  -8.84416
 H  -15.42530  -6.07747  7.40183
 H  -12.97624  -9.09977  9.90249
 H  14.48307  6.87599  -13.31782
 H  12.43721  10.00358  -10.59421
*
