# ================================================================
# Orca input file made by Matty Jones
# ================================================================
! ZINDO/S 
! NOPOP
! NOMOPRINT
* xyz 0   1
 C  3.77159  -6.87453  36.25690
 C  3.85402  -8.01058  37.06343
 C  3.97888  -7.72776  38.45938
 C  3.99512  -6.36149  38.75663
 S  3.85610  -5.58620  37.29717
 H  4.26667  -8.99411  36.61485
 C  4.05339  -9.06423  39.35778
 C  2.69210  -10.01891  38.76276
 C  1.89777  -11.53402  38.91868
 H  0.76473  -11.31970  38.97932
 H  2.25052  -12.01894  39.90253
 H  2.93751  -10.09732  37.63844
 H  1.81908  -9.27202  38.91625
 H  3.92597  -8.86433  40.48222
 H  5.03078  -9.65112  39.14658
 C  2.19120  -12.54110  37.66339
 C  1.10231  -13.82960  37.54234
 C  1.52744  -15.17609  38.44512
 H  0.87225  -16.07398  38.12185
 H  1.35235  -14.95153  39.56729
 H  2.64330  -15.42543  38.26745
 H  1.04330  -14.14287  36.43370
 H  0.06604  -13.46504  37.89015
 H  3.25604  -12.97800  37.75398
 H  2.11512  -11.95373  36.66852
 C  -4.76366  6.17054  -38.22078
 C  -3.92257  7.26531  -38.01597
 C  -4.54751  8.36506  -37.34942
 C  -5.88883  8.13753  -37.02629
 S  -6.22623  6.60914  -37.57457
 H  -2.83078  7.31498  -38.34315
 C  -3.54276  9.62001  -37.12556
 C  -3.78864  11.18828  -37.71026
 C  -2.41026  12.12853  -37.33828
 H  -2.73140  13.23763  -37.38312
 H  -2.09366  11.87496  -36.25820
 H  -3.92415  11.15370  -38.84922
 H  -4.70733  11.65176  -37.20456
 H  -3.44050  9.76345  -35.96695
 H  -2.47503  9.32814  -37.50625
 C  -1.13976  11.89779  -38.34590
 C  -0.91520  12.89232  -39.69875
 C  0.11833  14.19893  -39.44995
 H  -0.41033  14.98457  -38.78647
 H  0.38833  14.67041  -40.47277
 H  1.08408  13.83299  -38.92799
 H  -0.47161  12.24678  -40.54464
 H  -1.94272  13.29967  -40.02168
 H  -0.16807  11.98601  -37.71804
 H  -1.19710  10.81617  -38.75959
 H  3.67527  -6.84217  35.20178
 H  4.07878  -5.91483  39.71428
 H  -4.51900  5.25229  -38.69043
 H  -6.55126  8.80266  -36.53398
*
