# ================================================================
# Orca input file made by Matty Jones
# ================================================================
! ZINDO/S 
! NOPOP
! NOMOPRINT
* xyz 0   1
 C  -10.36655  28.64530  -0.99851
 C  -10.66631  27.28295  -1.04371
 C  -10.37043  26.57959  0.16542
 C  -9.83433  27.39064  1.17046
 S  -9.75572  28.91389  0.51933
 H  -11.09824  26.75340  -1.97062
 C  -10.67718  24.99315  0.25798
 C  -11.02670  24.10136  1.66674
 C  -12.56012  23.92310  2.36551
 H  -12.41579  23.81736  3.50792
 H  -13.16301  24.88415  2.15274
 H  -10.76778  23.00795  1.32707
 H  -10.29048  24.34061  2.48983
 H  -9.74871  24.43847  -0.20034
 H  -11.58487  24.75977  -0.43928
 C  -13.35151  22.62303  1.78853
 C  -12.96814  21.14192  2.51724
 C  -13.95269  20.66093  3.79323
 H  -13.42299  20.89057  4.79607
 H  -14.14710  19.52187  3.71134
 H  -14.96009  21.22739  3.74569
 H  -11.88675  21.21265  2.91169
 H  -13.02219  20.32893  1.70113
 H  -14.48963  22.78543  1.92793
 H  -13.13485  22.51426  0.65737
 C  9.80954  -28.05373  -2.67306
 C  10.45681  -26.94652  -2.12258
 C  9.58725  -26.04503  -1.43304
 C  8.24659  -26.44240  -1.43908
 S  8.20819  -27.86817  -2.28534
 H  11.58681  -26.78859  -2.16784
 C  10.08403  -24.69657  -0.69188
 C  11.28199  -23.70511  -1.36061
 C  12.78305  -24.16343  -0.71709
 H  12.84840  -25.31677  -0.77481
 H  12.76280  -23.85644  0.40152
 H  11.30148  -23.84330  -2.49989
 H  11.07137  -22.60884  -1.09058
 H  9.16555  -23.98274  -0.55274
 H  10.48141  -24.97048  0.36843
 C  14.10182  -23.51451  -1.40946
 C  14.52109  -21.94082  -0.96507
 C  13.84451  -20.78898  -1.99074
 H  13.34401  -21.31069  -2.89456
 H  14.67782  -20.08039  -2.37024
 H  13.05041  -20.17961  -1.41027
 H  14.15680  -21.74338  0.10868
 H  15.66834  -21.84288  -1.00902
 H  13.97424  -23.53666  -2.55916
 H  15.01312  -24.18049  -1.13665
 H  -10.50103  29.35800  -1.77155
 H  -9.53983  27.09398  2.14455
 H  10.24903  -28.84617  -3.22305
 H  7.42655  -25.93796  -0.99562
*
