# ================================================================
# Orca input file made by Matty Jones
# ================================================================
! ZINDO/S 
! NOPOP
! NOMOPRINT
* xyz 0   1
 C  2.60699  -3.11897  -1.84067
 C  1.45556  -3.87972  -1.63244
 C  0.41399  -3.18531  -0.94165
 C  0.74464  -1.86960  -0.60269
 S  2.28661  -1.63795  -1.16759
 H  1.40081  -4.99555  -1.86121
 C  -0.90733  -4.09765  -0.72015
 C  -2.53664  -3.65297  -0.79827
 C  -3.21751  -3.29802  0.69571
 H  -2.40810  -2.83757  1.37786
 H  -4.06581  -2.53182  0.54039
 H  -2.62006  -2.71553  -1.46540
 H  -3.12902  -4.51574  -1.28187
 H  -0.81217  -4.58108  0.34626
 H  -0.85459  -4.98261  -1.48671
 C  -3.80250  -4.67013  1.36740
 C  -5.40428  -5.06602  0.98585
 C  -5.63376  -6.03424  -0.37370
 H  -6.40349  -6.86260  -0.12369
 H  -4.63136  -6.51995  -0.68455
 H  -6.03721  -5.38367  -1.24181
 H  -5.98462  -4.08339  0.82551
 H  -5.84621  -5.62609  1.89260
 H  -3.14533  -5.56515  1.04111
 H  -3.74094  -4.57608  2.51901
 C  0.13145  -0.51124  0.16728
 C  0.97253  0.58354  0.37210
 C  0.34759  1.68328  1.03864
 C  -0.99373  1.45575  1.36178
 S  -1.33113  -0.07264  0.81349
 H  2.06432  0.63321  0.04492
 C  1.35234  2.93823  1.26251
 C  1.10646  4.50651  0.67780
 C  2.48484  5.44675  1.04979
 H  2.16370  6.55585  1.00494
 H  2.80144  5.19318  2.12986
 H  0.97095  4.47192  -0.46116
 H  0.18777  4.96999  1.18351
 H  1.45460  3.08167  2.42112
 H  2.42007  2.64636  0.88182
 C  3.75534  5.21601  0.04217
 C  3.97990  6.21054  -1.31068
 C  5.01343  7.51716  -1.06188
 H  4.48477  8.30280  -0.39841
 H  5.28343  7.98864  -2.08471
 H  5.97918  7.15121  -0.53993
 H  4.42349  5.56501  -2.15657
 H  2.95238  6.61790  -1.63361
 H  4.72703  5.30424  0.67002
 H  3.69800  4.13439  -0.37153
 H  3.49836  -3.42375  -2.32665
 H  -1.65616  2.12089  1.85409
*
