# ================================================================
# Orca input file made by Matty Jones
# ================================================================
! ZINDO/S 
! NOPOP
! NOMOPRINT
* xyz 0   1
 C  -0.05007  6.56416  -5.61344
 C  -0.93934  5.53669  -5.29499
 C  -0.54944  4.75749  -4.16138
 C  0.65377  5.17176  -3.58176
 S  1.16471  6.46218  -4.48960
 H  -1.89787  5.32069  -5.87841
 C  -1.51387  3.53646  -3.70045
 C  -1.16742  2.15648  -2.74495
 C  -0.50026  0.67257  -3.22337
 H  0.19806  0.88183  -4.12085
 H  0.14191  0.28484  -2.34051
 H  -2.26424  1.82837  -2.46002
 H  -0.70513  2.46548  -1.75481
 H  -1.95213  3.05763  -4.67876
 H  -2.41488  4.02194  -3.13130
 C  -1.59109  -0.46595  -3.63635
 C  -2.28403  -1.33561  -2.35722
 C  -3.72590  -0.66624  -1.79847
 H  -3.49145  0.23828  -1.11669
 H  -4.30971  -1.46399  -1.19640
 H  -4.36351  -0.32022  -2.70000
 H  -2.50157  -2.40573  -2.72336
 H  -1.53631  -1.36857  -1.48288
 H  -2.45067  0.02526  -4.23322
 H  -1.07089  -1.24591  -4.31783
 C  3.10897  2.04940  0.47142
 C  2.32815  1.12037  1.16071
 C  3.08198  0.18420  1.93504
 C  4.46502  0.37498  1.85680
 S  4.67938  1.67363  0.84786
 H  1.18638  1.11817  1.14707
 C  2.46095  -1.03531  2.82138
 C  1.20386  -0.97574  3.99475
 C  0.86689  -2.47490  4.78210
 H  0.79160  -2.20434  5.90714
 H  1.82708  -3.10695  4.62552
 H  0.24202  -0.64467  3.46269
 H  1.49849  -0.21509  4.80044
 H  3.34552  -1.52550  3.41261
 H  2.06293  -1.84016  2.06749
 C  -0.40156  -3.44908  4.43597
 C  -0.45603  -4.94195  5.25944
 C  0.15299  -6.24863  4.38506
 H  1.27599  -6.07985  4.16956
 H  -0.42789  -6.33496  3.38677
 H  0.01286  -7.22074  4.99703
 H  0.16686  -4.84074  6.22370
 H  -1.55187  -5.16715  5.53080
 H  -0.41307  -3.68080  3.30541
 H  -1.37868  -2.89467  4.71414
 H  -0.13366  7.26245  -6.40653
 H  1.13793  4.74944  -2.73865
 H  2.76959  2.83051  -0.15968
 H  5.21865  -0.19179  2.34098
*
