# ================================================================
# Orca input file made by Matty Jones
# ================================================================
! ZINDO/S 
! NOPOP
! NOMOPRINT
* xyz 0   1
 C  -1.96877  2.87695  -3.05381
 C  -0.58366  3.04551  -3.02323
 C  0.04422  2.50864  -1.85625
 C  -0.84963  1.91315  -0.96084
 S  -2.34866  2.07989  -1.65043
 H  -0.00214  3.45492  -3.91544
 C  1.64313  2.64670  -1.75150
 C  2.11628  4.25451  -2.10823
 C  3.75002  4.65610  -2.09595
 H  3.80988  5.74163  -1.68554
 H  4.27102  3.95642  -1.33462
 H  1.71600  4.50208  -3.15711
 H  1.58732  4.92880  -1.33471
 H  2.01637  2.45275  -0.66923
 H  2.18005  1.93474  -2.47917
 C  4.57769  4.61567  -3.50431
 C  3.76266  4.67698  -4.98917
 C  3.31853  3.19935  -5.65897
 H  3.72310  3.13672  -6.74275
 H  2.16393  3.11725  -5.67294
 H  3.76085  2.33519  -5.03095
 H  2.82131  5.32802  -4.86927
 H  4.47622  5.19275  -5.73988
 H  5.19316  3.63242  -3.52149
 H  5.32172  5.50440  -3.50994
 C  -0.49443  0.60008  0.01072
 C  -1.26233  -0.36627  0.66217
 C  -0.49698  -1.30803  1.41821
 C  0.88223  -1.08419  1.36347
 S  1.07938  0.24841  0.39614
 H  -2.40246  -0.40944  0.61552
 C  -1.09960  -2.55817  2.27540
 C  -2.39285  -2.51191  3.40047
 C  -2.72548  -4.00284  4.19612
 H  -2.90675  -3.70528  5.30360
 H  -1.72269  -4.58312  4.14085
 H  -3.34364  -2.20676  2.83102
 H  -2.13954  -1.73304  4.20331
 H  -0.21623  -3.01700  2.90406
 H  -1.42764  -3.36875  1.51826
 C  -3.90976  -5.05000  3.78598
 C  -3.92710  -6.53688  4.62334
 C  -2.56720  -6.90663  5.54704
 H  -1.63200  -6.89462  4.86516
 H  -2.69250  -7.96303  6.00427
 H  -2.44611  -6.12949  6.39381
 H  -4.07044  -7.37728  3.84883
 H  -4.83138  -6.51879  5.33978
 H  -3.82452  -5.30071  2.66178
 H  -4.93614  -4.55171  3.97997
 H  -2.63698  3.19206  -3.81394
 H  1.64254  -1.64817  1.84040
*
