# ================================================================
# Orca input file made by Matty Jones
# ================================================================
! ZINDO/S 
! NOPOP
! NOMOPRINT
* xyz 0   1
 C  8.34235  -5.66920  34.20349
 C  8.42478  -6.80524  35.01002
 C  8.54963  -6.52242  36.40597
 C  8.56588  -5.15615  36.70322
 S  8.42685  -4.38087  35.24376
 H  8.83742  -7.78878  34.56144
 C  8.62415  -7.85890  37.30437
 C  7.26285  -8.81358  36.70935
 C  6.46852  -10.32869  36.86527
 H  5.33548  -10.11436  36.92591
 H  6.82127  -10.81360  37.84912
 H  7.50826  -8.89199  35.58503
 H  6.38984  -8.06668  36.86284
 H  8.49672  -7.65900  38.42881
 H  9.60153  -8.44579  37.09317
 C  6.76195  -11.33576  35.60998
 C  5.67307  -12.62427  35.48893
 C  6.09819  -13.97075  36.39171
 H  5.44300  -14.86864  36.06844
 H  5.92310  -13.74619  37.51388
 H  7.21405  -14.22009  36.21404
 H  5.61405  -12.93754  34.38029
 H  4.63680  -12.25970  35.83674
 H  7.82680  -11.77266  35.70057
 H  6.68588  -10.74839  34.61511
 C  -2.46051  10.10524  -38.10954
 C  -3.72779  9.57675  -37.85939
 C  -4.54878  10.39826  -37.02550
 C  -3.92663  11.58140  -36.61511
 S  -2.41476  11.54927  -37.29604
 H  -4.09009  8.57650  -38.27149
 C  -6.02892  9.83444  -36.67607
 C  -7.45952  10.75125  -36.59801
 C  -8.84531  9.79743  -36.31647
 H  -9.70850  10.31242  -36.89358
 H  -8.64298  8.76786  -36.80503
 H  -7.58513  11.34369  -37.57017
 H  -7.42341  11.43824  -35.68904
 H  -5.97420  9.31214  -35.62608
 H  -6.28508  9.00071  -37.45698
 C  -9.32311  9.55933  -34.77843
 C  -10.66132  8.52780  -34.64065
 C  -10.23293  6.91196  -34.44980
 H  -9.67526  6.54803  -35.39603
 H  -11.18822  6.27788  -34.29289
 H  -9.54253  6.80768  -33.52676
 H  -11.29840  8.62496  -35.59530
 H  -11.28080  8.85271  -33.72638
 H  -8.45723  9.10280  -34.16515
 H  -9.62116  10.57250  -34.30686
 H  8.24603  -5.63684  33.14837
 H  8.64954  -4.70949  37.66087
 H  -1.68978  9.67431  -38.69596
 H  -4.33568  12.33999  -35.99801
*
