# ================================================================
# Orca input file made by Matty Jones
# ================================================================
! ZINDO/S 
! NOPOP
! NOMOPRINT
* xyz 0   1
 C  0.92765  -5.80124  -4.06585
 C  1.53549  -5.36271  -2.88852
 C  0.71693  -4.49959  -2.09526
 C  -0.54363  -4.25535  -2.64901
 S  -0.57858  -5.10817  -4.07095
 H  2.45796  -5.85964  -2.40886
 C  1.39589  -3.91815  -0.76160
 C  2.93938  -3.34349  -1.10218
 C  3.98826  -2.74970  0.06907
 H  3.87821  -1.59616  0.08758
 H  5.06739  -3.00144  -0.27109
 H  3.52586  -4.19949  -1.61049
 H  2.78076  -2.49056  -1.86721
 H  0.73704  -3.07568  -0.30169
 H  1.45566  -4.77296  0.02685
 C  3.74426  -3.34338  1.55804
 C  2.59364  -2.46612  2.41702
 C  3.27002  -1.11803  3.15745
 H  4.03292  -1.45859  3.95713
 H  2.43127  -0.49520  3.65547
 H  3.80639  -0.47603  2.35774
 H  1.76307  -2.12290  1.69784
 H  2.14707  -3.14952  3.22989
 H  4.73918  -3.31936  2.14998
 H  3.38575  -4.44187  1.49205
 C  -4.36390  -1.09504  0.11646
 C  -3.52282  -0.00026  0.32128
 C  -4.14775  1.09948  0.98782
 C  -5.48907  0.87195  1.31096
 S  -5.82647  -0.65644  0.76267
 H  -2.43103  0.04941  -0.00590
 C  -3.14301  2.35443  1.21169
 C  -3.38888  3.92271  0.62698
 C  -2.01051  4.86296  0.99897
 H  -2.33164  5.97205  0.95412
 H  -1.69390  4.60938  2.07904
 H  -3.52439  3.88812  -0.51198
 H  -4.30757  4.38619  1.13269
 H  -3.04075  2.49787  2.37030
 H  -2.07527  2.06256  0.83100
 C  -0.74000  4.63222  -0.00865
 C  -0.51544  5.62674  -1.36150
 C  0.51809  6.93336  -1.11270
 H  -0.01058  7.71900  -0.44923
 H  0.78809  7.40484  -2.13553
 H  1.48384  6.56742  -0.59075
 H  -0.07186  4.98121  -2.20739
 H  -1.54297  6.03410  -1.68443
 H  0.23169  4.72044  0.61920
 H  -0.79735  3.55059  -0.42235
 H  1.34164  -6.44224  -4.80161
 H  -1.31530  -3.65154  -2.24462
 H  -4.11924  -2.01328  -0.35319
 H  -6.15151  1.53709  1.80327
*
