# ================================================================
# Orca input file made by Matty Jones
# ================================================================
! ZINDO/S 
! NOPOP
! NOMOPRINT
* xyz 0   1
 C  23.90285  -2.30401  8.49557
 C  23.01358  -3.33147  8.81401
 C  23.40347  -4.11068  9.94763
 C  24.60669  -3.69640  10.52724
 S  25.11763  -2.40598  9.61940
 H  22.05504  -3.54747  8.23059
 C  22.43905  -5.33171  10.40856
 C  22.78550  -6.71168  11.36406
 C  23.45266  -8.19560  10.88564
 H  24.15097  -7.98633  9.98816
 H  24.09483  -8.58333  11.76849
 H  21.68867  -7.03979  11.64899
 H  23.24779  -6.40269  12.35419
 H  22.00079  -5.81053  9.43025
 H  21.53804  -4.84622  10.97770
 C  22.36183  -9.33411  10.47265
 C  21.66889  -10.20378  11.75178
 C  20.22702  -9.53440  12.31054
 H  20.46147  -8.62989  12.99231
 H  19.64321  -10.33216  12.91261
 H  19.58940  -9.18839  11.40901
 H  21.45134  -11.27390  11.38565
 H  22.41661  -10.23674  12.62612
 H  21.50225  -8.84291  9.87578
 H  22.88202  -10.11407  9.79117
 C  -24.60047  2.28272  -10.78516
 C  -23.75939  3.37750  -10.58034
 C  -24.38433  4.47724  -9.91380
 C  -25.72564  4.24971  -9.59066
 S  -26.06305  2.72132  -10.13895
 H  -22.66760  3.42717  -10.90752
 C  -23.37958  5.73219  -9.68993
 C  -23.62545  7.30047  -10.27464
 C  -22.24708  8.24072  -9.90265
 H  -22.56822  9.34981  -9.94750
 H  -21.93047  7.98715  -8.82258
 H  -23.76097  7.26589  -11.41360
 H  -24.54415  7.76395  -9.76894
 H  -23.27732  5.87564  -8.53133
 H  -22.31184  5.44032  -10.07062
 C  -20.97657  8.00998  -10.91028
 C  -20.75201  9.00450  -12.26312
 C  -19.71849  10.31112  -12.01432
 H  -20.24715  11.09676  -11.35085
 H  -19.44849  10.78260  -13.03715
 H  -18.75274  9.94518  -11.49237
 H  -20.30843  8.35897  -13.10902
 H  -21.77954  9.41186  -12.58605
 H  -20.00488  8.09820  -10.28242
 H  -21.03392  6.92835  -11.32397
 H  23.81925  -1.60572  7.70247
 H  25.09085  -4.11872  11.37035
 H  -24.35582  1.36448  -11.25481
 H  -26.38808  4.91485  -9.09835
*
