# ================================================================
# Orca input file made by Matty Jones
# ================================================================
! ZINDO/S 
! NOPOP
! NOMOPRINT
* xyz 0   1
 C  23.04225  5.90001  -26.88177
 C  22.27435  4.93366  -26.23032
 C  23.03970  3.99190  -25.47428
 C  24.41891  4.21574  -25.52902
 S  24.61606  5.54835  -26.49635
 H  21.13421  4.89050  -26.27697
 C  22.43707  2.74177  -24.61708
 C  21.14383  2.78803  -23.49202
 C  20.81120  1.29709  -22.69637
 H  20.62993  1.59466  -21.58889
 H  21.81399  0.71681  -22.75164
 H  20.19304  3.09317  -24.06147
 H  21.39714  3.56689  -22.68918
 H  23.32045  2.28294  -23.98843
 H  22.10904  1.93119  -25.37423
 C  19.62692  0.24994  -23.10651
 C  19.60958  -1.23694  -22.26915
 C  20.96948  -1.60670  -21.34545
 H  21.90468  -1.59469  -22.02733
 H  20.84418  -2.66309  -20.88822
 H  21.09057  -0.82956  -20.49868
 H  19.46624  -2.07735  -23.04366
 H  18.70530  -1.21885  -21.55271
 H  19.71216  -0.00078  -24.23071
 H  18.60054  0.74822  -22.91252
 C  -20.06813  1.85341  22.19478
 C  -20.06781  0.71745  23.00563
 C  -19.98928  0.99913  24.40518
 C  -19.92727  2.36441  24.70095
 S  -19.97224  3.14028  23.23588
 H  -19.71480  -0.28330  22.56300
 C  -20.02291  -0.37077  25.27894
 C  -21.37536  -1.28264  24.61126
 C  -22.13193  -2.81572  24.77009
 H  -23.26410  -2.63424  24.89029
 H  -21.71467  -3.30955  25.72249
 H  -21.16360  -1.32005  23.47945
 H  -22.25065  -0.54850  24.80685
 H  -20.21661  -0.16208  26.39451
 H  -19.06313  -0.99350  25.13733
 C  -21.87261  -3.79330  23.48024
 C  -22.65152  -5.30228  23.45951
 C  -24.15124  -5.39217  22.69019
 H  -24.97978  -5.53969  23.48442
 H  -24.15120  -6.29467  21.96396
 H  -24.34915  -4.41964  22.09708
 H  -22.79988  -5.62934  24.55470
 H  -21.94665  -6.04560  22.92962
 H  -20.73814  -4.00215  23.39295
 H  -22.21674  -3.23862  22.52245
 H  22.69297  6.69181  -27.49386
 H  25.17922  3.65177  -25.05209
 H  -20.11895  1.88649  21.13651
 H  -19.86463  2.81015  25.66064
*
