# ================================================================
# Orca input file made by Matty Jones
# ================================================================
! ZINDO/S 
! NOPOP
! NOMOPRINT
* xyz 0   1
 C  25.12947  2.66904  5.87036
 C  24.56863  1.48155  6.34282
 C  25.10379  1.03999  7.59298
 C  26.09219  1.88305  8.11028
 S  26.24974  3.11314  7.00916
 H  23.74055  0.91496  5.79695
 C  24.59016  -0.33043  8.27708
 C  22.93661  -0.75975  8.34127
 C  22.44659  -1.71217  7.03071
 H  22.63115  -1.09639  6.06996
 H  23.14578  -2.63619  7.01148
 H  22.75498  -1.35582  9.30817
 H  22.31161  0.20406  8.34888
 H  24.84810  -0.34149  9.40916
 H  25.13035  -1.22629  7.77624
 C  20.90195  -2.23168  7.05407
 C  20.05873  -1.88639  5.63206
 C  18.46755  -2.43119  5.63273
 H  18.39946  -3.42773  6.21657
 H  18.12067  -2.59659  4.54059
 H  17.79315  -1.63755  6.13731
 H  20.61252  -2.39624  4.75899
 H  20.05656  -0.74546  5.47612
 H  20.87776  -3.37728  7.20962
 H  20.33370  -1.72777  7.92623
 C  -17.77015  1.56800  -8.50067
 C  -18.92159  0.80726  -8.29244
 C  -19.96316  1.50166  -7.60165
 C  -19.63251  2.81738  -7.26269
 S  -18.09054  3.04902  -7.82759
 H  -18.97634  -0.30857  -8.52121
 C  -21.28448  0.58933  -7.38015
 C  -22.91379  1.03400  -7.45827
 C  -23.59466  1.38895  -5.96429
 H  -22.78525  1.84940  -5.28214
 H  -24.44295  2.15515  -6.11961
 H  -22.99721  1.97144  -8.12540
 H  -23.50616  0.17124  -7.94187
 H  -21.18932  0.10589  -6.31374
 H  -21.23174  -0.29564  -8.14671
 C  -24.17965  0.01685  -5.29260
 C  -25.78143  -0.37905  -5.67415
 C  -26.01091  -1.34726  -7.03370
 H  -26.78064  -2.17563  -6.78369
 H  -25.00850  -1.83298  -7.34455
 H  -26.41436  -0.69670  -7.90181
 H  -26.36177  0.60358  -5.83449
 H  -26.22336  -0.93912  -4.76740
 H  -23.52248  -0.87817  -5.61889
 H  -24.11809  0.11090  -4.14099
 H  24.88977  3.17939  4.97276
 H  26.62847  1.76139  9.01648
 H  -16.87878  1.26323  -8.98665
 H  -20.24018  3.51966  -6.75169
*
