# ================================================================
# Orca input file made by Matty Jones
# ================================================================
! ZINDO/S 
! NOPOP
! NOMOPRINT
* xyz 0   1
 C  -21.34608  -5.24900  7.40300
 C  -20.38541  -4.41934  7.98323
 C  -19.83028  -4.92956  9.19805
 C  -20.35527  -6.16834  9.57900
 S  -21.46307  -6.56165  8.40917
 H  -20.07947  -3.41683  7.53634
 C  -18.71754  -4.07302  9.99510
 C  -17.32945  -3.52608  9.15167
 C  -17.32265  -2.10312  8.21133
 H  -16.46379  -2.26531  7.44392
 H  -18.32203  -2.09128  7.63095
 H  -17.03016  -4.38549  8.44393
 H  -16.50531  -3.38446  9.94787
 H  -19.20875  -3.11767  10.43922
 H  -18.30539  -4.70715  10.88441
 C  -17.09919  -0.62669  8.86560
 C  -17.04699  0.63581  7.72632
 C  -15.51217  1.14802  7.25802
 H  -14.87437  1.34841  8.20268
 H  -15.61078  2.12600  6.64571
 H  -15.00882  0.33292  6.61122
 H  -17.59091  0.26957  6.77666
 H  -17.61130  1.53840  8.16606
 H  -17.97325  -0.39464  9.58647
 H  -16.10900  -0.60462  9.45917
 C  16.28044  -2.25446  -8.20627
 C  17.04597  -1.08752  -8.19539
 C  16.46071  -0.01217  -7.45691
 C  15.22682  -0.33159  -6.88176
 S  14.92910  -1.90557  -7.31115
 H  18.07170  -0.98266  -8.68445
 C  17.38710  1.32559  -7.49079
 C  16.96769  2.94372  -7.77238
 C  18.40949  3.87131  -7.85244
 H  18.15036  4.95006  -7.53716
 H  19.17189  3.42899  -7.10936
 H  16.40711  3.02445  -8.77047
 H  16.32635  3.33362  -6.90788
 H  17.92366  1.36618  -6.45262
 H  18.23896  1.15171  -8.28520
 C  19.04456  3.87467  -9.36145
 C  20.52889  4.64828  -9.63179
 C  20.43831  6.26244  -10.09576
 H  19.45630  6.44618  -10.67914
 H  21.34239  6.51573  -10.77381
 H  20.46244  6.93327  -9.15320
 H  21.14773  4.58407  -8.66251
 H  21.07277  4.07337  -10.47198
 H  19.19223  2.77644  -9.69986
 H  18.27970  4.37289  -10.07524
 H  -21.88688  -5.07634  6.50783
 H  -20.09886  -6.73696  10.43604
 H  16.51376  -3.17060  -8.68569
 H  14.61075  0.30004  -6.29431
*
