# ================================================================
# Orca input file made by Matty Jones
# ================================================================
! ZINDO/S 
! NOPOP
! NOMOPRINT
* xyz 0   1
 C  10.55503  21.38230  -14.63590
 C  11.73186  21.92251  -14.11520
 C  11.52752  23.04290  -13.25078
 C  10.18254  23.38914  -13.08809
 S  9.32896  22.30605  -14.00937
 H  12.74848  21.46367  -14.34405
 C  12.90368  23.68221  -12.69175
 C  13.27970  25.33797  -12.72032
 C  12.74538  26.22886  -11.38906
 H  11.65871  25.94266  -11.15239
 H  12.80258  27.35763  -11.62643
 H  14.43077  25.43395  -12.76921
 H  12.81545  25.79237  -13.66833
 H  12.94448  23.41406  -11.57328
 H  13.83007  23.15066  -13.19820
 C  13.68098  25.87386  -10.11008
 C  13.21066  26.61723  -8.67477
 C  14.12086  27.97802  -8.30963
 H  13.84882  28.33986  -7.24422
 H  13.89852  28.81556  -9.07597
 H  15.24515  27.70295  -8.34724
 H  12.10762  26.94036  -8.77875
 H  13.30731  25.86015  -7.81343
 H  14.77156  26.18932  -10.33578
 H  13.66233  24.73065  -9.92808
 C  -14.88777  -29.03636  9.83820
 C  -14.12093  -28.10349  10.53789
 C  -14.89016  -27.11744  11.23090
 C  -16.27139  -27.27249  11.07765
 S  -16.46546  -28.60272  10.10643
 H  -12.98304  -28.14605  10.60702
 C  -14.19794  -25.95182  12.11664
 C  -12.80670  -25.12713  11.62213
 C  -12.31458  -23.90926  12.70488
 H  -12.62334  -24.23808  13.76987
 H  -12.88908  -22.94440  12.43203
 H  -11.95231  -25.89447  11.53951
 H  -13.00693  -24.64422  10.59929
 H  -14.97318  -25.08955  12.26965
 H  -13.91698  -26.38773  13.15711
 C  -10.71139  -23.62299  12.67328
 C  -10.13009  -22.94351  11.24126
 C  -10.12245  -21.26797  11.14599
 H  -9.30547  -20.84490  11.84755
 H  -11.15854  -20.85952  11.45884
 H  -9.89536  -20.95456  10.05436
 H  -9.04231  -23.30672  11.10496
 H  -10.77356  -23.34692  10.37295
 H  -10.13926  -24.61217  12.85353
 H  -10.44526  -22.88768  13.52836
 H  10.46422  20.55575  -15.29330
 H  9.79061  24.17858  -12.49922
 H  -14.53578  -29.85045  9.25770
 H  -17.03459  -26.66665  11.49487
*
