# ================================================================
# Orca input file made by Matty Jones
# ================================================================
! ZINDO/S 
! NOPOP
! NOMOPRINT
* xyz 0   1
 C  -19.17205  -1.25294  -31.24431
 C  -19.93995  -2.21930  -30.59286
 C  -19.17460  -3.16105  -29.83683
 C  -17.79540  -2.93721  -29.89156
 S  -17.59824  -1.60461  -30.85889
 H  -21.08009  -2.26246  -30.63951
 C  -19.77723  -4.41119  -28.97963
 C  -21.07047  -4.36493  -27.85457
 C  -21.40311  -5.85586  -27.05891
 H  -21.58437  -5.55830  -25.95143
 H  -20.40032  -6.43615  -27.11418
 H  -22.02126  -4.05978  -28.42401
 H  -20.81716  -3.58606  -27.05172
 H  -18.89385  -4.87002  -28.35097
 H  -20.10526  -5.22177  -29.73677
 C  -22.58738  -6.90302  -27.46906
 C  -22.60473  -8.38990  -26.63169
 C  -21.24483  -8.75965  -25.70800
 H  -20.30962  -8.74765  -26.38988
 H  -21.37013  -9.81605  -25.25076
 H  -21.12374  -7.98251  -24.86123
 H  -22.74807  -9.23030  -27.40621
 H  -23.50901  -8.37181  -25.91525
 H  -22.50215  -7.15373  -28.59326
 H  -23.61377  -6.40473  -27.27506
 C  19.51576  3.04168  24.39689
 C  20.10745  3.40891  25.60641
 C  19.32772  4.32007  26.38492
 C  18.11421  4.67410  25.78712
 S  18.07047  3.85270  24.34704
 H  20.90347  2.79329  26.12375
 C  20.01258  4.75397  27.77271
 C  21.61986  5.22306  27.44927
 C  22.67466  5.53677  28.71519
 H  23.73937  5.56905  28.24889
 H  22.62927  4.61519  29.41771
 H  22.13370  4.41025  26.81487
 H  21.54077  6.19061  26.81984
 H  19.45452  5.65639  28.23950
 H  20.01721  3.87505  28.52548
 C  22.45591  6.89541  29.56693
 C  21.61246  6.57481  30.99837
 C  19.94038  6.61905  30.85775
 H  19.63485  7.40834  30.06884
 H  19.48422  6.89962  31.88434
 H  19.55345  5.57636  30.53881
 H  21.91390  5.52800  31.37721
 H  21.93052  7.36502  31.77550
 H  21.85427  7.66672  28.95273
 H  23.47786  7.35564  29.84946
 H  -19.52133  -0.46115  -31.85641
 H  -17.03509  -3.50119  -29.41464
 H  19.90771  2.38314  23.66456
 H  17.37668  5.33013  26.17348
*
