# ================================================================
# Orca input file made by Matty Jones
# ================================================================
! ZINDO/S 
! NOPOP
! NOMOPRINT
* xyz 0   1
 C  -18.62240  -8.21016  7.99544
 C  -17.23728  -8.04161  8.02602
 C  -16.60941  -8.57848  9.19299
 C  -17.50326  -9.17396  10.08840
 S  -19.00229  -9.00723  9.39881
 H  -16.65577  -7.63219  7.13380
 C  -15.01050  -8.44041  9.29774
 C  -14.53735  -6.83260  8.94102
 C  -12.90361  -6.43101  8.95329
 H  -12.84375  -5.34549  9.36370
 H  -12.38260  -7.13069  9.71462
 H  -14.93763  -6.58504  7.89214
 H  -15.06630  -6.15831  9.71454
 H  -14.63726  -8.63436  10.38002
 H  -14.47357  -9.15237  8.57008
 C  -12.07593  -6.47145  7.54494
 C  -12.89096  -6.41013  6.06007
 C  -13.33509  -7.88777  5.39028
 H  -12.93053  -7.95039  4.30650
 H  -14.48970  -7.96986  5.37631
 H  -12.89277  -8.75193  6.01829
 H  -13.83232  -5.75909  6.17998
 H  -12.17741  -5.89436  5.30937
 H  -11.46046  -7.45469  7.52776
 H  -11.33190  -5.58271  7.53931
 C  12.17287  3.98718  -9.51608
 C  13.05869  4.96769  -9.06684
 C  12.47245  5.92033  -8.17631
 C  11.11690  5.69092  -7.92109
 S  10.72059  4.34046  -8.79833
 H  14.15972  5.00803  -9.35248
 C  13.31932  7.15809  -7.56474
 C  14.25006  8.07148  -8.62732
 C  14.93245  9.34041  -7.74447
 H  14.98605  9.03882  -6.63210
 H  14.18578  10.22718  -7.82857
 H  15.07183  7.41754  -9.09330
 H  13.56687  8.50035  -9.44771
 H  12.73962  7.95990  -6.97786
 H  14.07195  6.69329  -6.79844
 C  16.37345  9.82657  -8.30384
 C  17.68880  9.06827  -7.55407
 C  17.33086  8.03588  -6.26995
 H  16.85022  8.64200  -5.40972
 H  18.31155  7.54863  -5.89257
 H  16.60391  7.21020  -6.62599
 H  18.23751  8.44699  -8.35526
 H  18.39068  9.89260  -7.15832
 H  16.48379  10.96623  -8.13657
 H  16.44533  9.61114  -9.43863
 H  -19.29061  -7.89505  7.23531
 H  -17.27129  -9.63533  11.01410
 H  12.38403  3.18565  -10.17681
 H  10.47667  6.26085  -7.29748
*
