# ================================================================
# Orca input file made by Matty Jones
# ================================================================
! ZINDO/S 
! NOPOP
! NOMOPRINT
* xyz 0   1
 C  -1.35045  0.78555  -2.80278
 C  -1.91129  -0.40194  -2.33032
 C  -1.37613  -0.84350  -1.08017
 C  -0.38773  -0.00044  -0.56286
 S  -0.23018  1.22966  -1.66398
 H  -2.73937  -0.96853  -2.87619
 C  -1.88976  -2.21392  -0.39606
 C  -3.54331  -2.64324  -0.33187
 C  -4.03333  -3.59565  -1.64244
 H  -3.84878  -2.97987  -2.60319
 H  -3.33414  -4.51968  -1.66166
 H  -3.72494  -3.23931  0.63503
 H  -4.16831  -1.67943  -0.32426
 H  -1.63182  -2.22497  0.73602
 H  -1.34957  -3.10978  -0.89690
 C  -5.57798  -4.11517  -1.61907
 C  -6.42119  -3.76988  -3.04108
 C  -8.01237  -4.31468  -3.04041
 H  -8.08046  -5.31122  -2.45658
 H  -8.35925  -4.48008  -4.13255
 H  -8.68677  -3.52104  -2.53583
 H  -5.86740  -4.27973  -3.91415
 H  -6.42336  -2.62895  -3.19702
 H  -5.60216  -5.26077  -1.46352
 H  -6.14622  -3.61126  -0.74691
 C  0.62767  -0.26046  0.72606
 C  1.80167  0.37507  1.13317
 C  2.36374  -0.15243  2.33737
 C  1.62987  -1.20982  2.88388
 S  0.34230  -1.43329  1.86279
 H  2.26803  1.25646  0.57386
 C  3.73304  0.40155  3.00809
 C  4.21556  2.03150  3.34303
 C  5.08549  2.99577  2.22908
 H  6.13537  3.13817  2.70601
 H  5.20759  2.36406  1.26973
 H  3.24814  2.60193  3.59154
 H  4.87604  1.96271  4.28633
 H  3.82899  -0.08992  4.06279
 H  4.62032  -0.00163  2.36488
 C  4.52798  4.47608  1.82932
 C  5.12086  5.12587  0.37006
 C  6.52210  6.06113  0.33500
 H  7.44572  5.36734  0.27719
 H  6.57931  6.71644  1.28546
 H  6.49463  6.74097  -0.60373
 H  5.29375  4.23438  -0.34258
 H  4.27385  5.78728  -0.05443
 H  3.37676  4.44167  1.74531
 H  4.81729  5.22558  2.66280
 H  -1.59015  1.29590  -3.70038
 H  1.85035  -1.75450  3.76610
*
