# ================================================================
# Orca input file made by Matty Jones
# ================================================================
! ZINDO/S 
! NOPOP
! NOMOPRINT
* xyz 0   1
 C  -17.73500  -3.53053  2.49186
 C  -18.55795  -4.40796  3.19951
 C  -17.88984  -5.12208  4.24255
 C  -16.53248  -4.80695  4.35910
 S  -16.23460  -3.67724  3.18205
 H  -19.67632  -4.52815  3.00987
 C  -18.63498  -6.18501  5.19820
 C  -19.85045  -7.30401  4.77735
 C  -20.61583  -7.47377  3.27742
 H  -20.69451  -6.45253  2.75635
 H  -20.01203  -8.20266  2.62007
 H  -19.39271  -8.34876  4.99151
 H  -20.68909  -7.11429  5.55202
 H  -19.06461  -5.60093  6.11926
 H  -17.83387  -6.93043  5.59157
 C  -22.10639  -8.07005  3.59282
 C  -23.21408  -8.24469  2.33804
 C  -23.28543  -9.78877  1.68525
 H  -24.28591  -9.91038  1.11472
 H  -23.23151  -10.57105  2.53632
 H  -22.40049  -9.94203  0.95708
 H  -22.93023  -7.50703  1.49866
 H  -24.25982  -7.97635  2.74442
 H  -21.97951  -9.11536  4.07786
 H  -22.61692  -7.37429  4.36937
 C  17.77186  3.36784  -5.02927
 C  18.65768  4.34835  -4.58003
 C  18.07144  5.30099  -3.68951
 C  16.71589  5.07158  -3.43428
 S  16.31958  3.72112  -4.31152
 H  19.75871  4.38869  -4.86568
 C  18.91831  6.53875  -3.07793
 C  19.84905  7.45214  -4.14052
 C  20.53144  8.72107  -3.25766
 H  20.58504  8.41948  -2.14530
 H  19.78477  9.60784  -3.34176
 H  20.67082  6.79820  -4.60649
 H  19.16586  7.88101  -4.96090
 H  18.33861  7.34056  -2.49105
 H  19.67094  6.07395  -2.31163
 C  21.97244  9.20723  -3.81703
 C  23.28779  8.44893  -3.06726
 C  22.92985  7.41654  -1.78314
 H  22.44921  8.02266  -0.92291
 H  23.91054  6.92929  -1.40576
 H  22.20290  6.59086  -2.13918
 H  23.83650  7.82765  -3.86846
 H  23.98967  9.27326  -2.67151
 H  22.08278  10.34689  -3.64976
 H  22.04432  8.99180  -4.95182
 H  -18.01100  -2.90273  1.68360
 H  -15.83910  -5.20648  5.05422
 H  17.98302  2.56631  -5.69000
 H  16.07566  5.64151  -2.81067
*
