# ================================================================
# Orca input file made by Matty Jones
# ================================================================
! ZINDO/S 
! NOPOP
! NOMOPRINT
* xyz 0   1
 C  30.00449  -4.64273  3.81248
 C  29.11522  -5.67020  4.13093
 C  29.50512  -6.44940  5.26454
 C  30.70833  -6.03513  5.84416
 S  31.21927  -4.74470  4.93632
 H  28.15669  -5.88620  3.54751
 C  28.54070  -7.67043  5.72547
 C  28.88714  -9.05041  6.68097
 C  29.55430  -10.53432  6.20255
 H  30.25262  -10.32506  5.30507
 H  30.19647  -10.92205  7.08541
 H  27.79032  -9.37852  6.96590
 H  29.34943  -8.74141  7.67111
 H  28.10243  -8.14925  4.74716
 H  27.63968  -7.18494  6.29461
 C  28.46347  -11.67283  5.78956
 C  27.77054  -12.54250  7.06869
 C  26.32866  -11.87313  7.62745
 H  26.56311  -10.96861  8.30923
 H  25.74485  -12.67088  8.22952
 H  25.69105  -11.52711  6.72592
 H  27.55299  -13.61262  6.70256
 H  28.51825  -12.57546  7.94304
 H  27.60390  -11.18163  5.19269
 H  28.98367  -12.45280  5.10809
 C  -24.57111  8.93441  -8.54695
 C  -25.46392  7.94862  -8.12386
 C  -26.52251  8.43620  -7.29565
 C  -26.46529  9.81395  -7.06360
 S  -25.12679  10.34882  -7.88381
 H  -25.25297  6.85160  -7.77002
 C  -27.60360  7.35187  -6.78063
 C  -29.23392  7.56390  -6.35183
 C  -29.99708  9.03405  -6.03501
 H  -29.42529  9.89979  -6.53001
 H  -31.07727  9.00031  -6.43688
 H  -29.83545  7.11370  -7.23792
 H  -29.40272  6.88035  -5.43327
 H  -27.14464  6.84381  -5.82865
 H  -27.66613  6.51384  -7.60118
 C  -29.98559  9.15214  -4.40990
 C  -30.69717  10.49498  -3.72127
 C  -31.45873  11.57109  -4.76033
 H  -32.00048  10.97920  -5.59549
 H  -30.66535  12.26852  -5.23419
 H  -32.23979  12.20947  -4.19844
 H  -31.40551  10.11000  -2.90943
 H  -29.82326  11.01141  -3.21213
 H  -30.54772  8.23198  -3.97340
 H  -28.88929  9.09939  -4.03665
 H  29.92090  -3.94444  3.01939
 H  31.19249  -6.45744  6.68727
 H  -23.71773  8.80595  -9.16245
 H  -27.13683  10.39486  -6.48465
*
