# ================================================================
# Orca input file made by Matty Jones
# ================================================================
! ZINDO/S 
! NOPOP
! NOMOPRINT
* xyz 0   1
 C  -23.99176  5.52742  11.82350
 C  -23.03109  6.35708  12.40373
 C  -22.47596  5.84686  13.61855
 C  -23.00095  4.60808  13.99950
 S  -24.10875  4.21477  12.82967
 H  -22.72515  7.35959  11.95684
 C  -21.36322  6.70340  14.41561
 C  -19.97513  7.25034  13.57217
 C  -19.96832  8.67330  12.63184
 H  -19.10947  8.51111  11.86442
 H  -20.96771  8.68514  12.05145
 H  -19.67584  6.39093  12.86444
 H  -19.15099  7.39196  14.36838
 H  -21.85443  7.65875  14.85972
 H  -20.95107  6.06927  15.30491
 C  -19.74486  10.14973  13.28610
 C  -19.69266  11.41223  12.14683
 C  -18.15784  11.92444  11.67853
 H  -17.52005  12.12483  12.62318
 H  -18.25646  12.90242  11.06621
 H  -17.65449  11.10934  11.03172
 H  -20.23658  11.04599  11.19716
 H  -20.25698  12.31482  12.58656
 H  -20.61892  10.38178  14.00697
 H  -18.75467  10.17180  13.87968
 C  22.20237  -4.62505  -14.48750
 C  22.20269  -5.76101  -13.67665
 C  22.28122  -5.47933  -12.27709
 C  22.34323  -4.11405  -11.98133
 S  22.29826  -3.33818  -13.44640
 H  22.55570  -6.76176  -14.11928
 C  22.24759  -6.84923  -11.40334
 C  20.89514  -7.76110  -12.07101
 C  20.13857  -9.29418  -11.91219
 H  19.00640  -9.11270  -11.79199
 H  20.55583  -9.78801  -10.95979
 H  21.10689  -7.79851  -13.20282
 H  20.01985  -7.02696  -11.87542
 H  22.05389  -6.64054  -10.28777
 H  23.20737  -7.47196  -11.54494
 C  20.39788  -10.27176  -13.20203
 C  19.61898  -11.78074  -13.22277
 C  18.11926  -11.87063  -13.99208
 H  17.29072  -12.01815  -13.19786
 H  18.11930  -12.77313  -14.71832
 H  17.92135  -10.89810  -14.58520
 H  19.47062  -12.10780  -12.12757
 H  20.32385  -12.52406  -13.75265
 H  21.53236  -10.48061  -13.28933
 H  20.05376  -9.71709  -14.15982
 H  -24.53256  5.70008  10.92833
 H  -22.74454  4.03946  14.85654
 H  22.15155  -4.59197  -15.54576
 H  22.40587  -3.66831  -11.02164
*
