# ================================================================
# Orca input file made by Matty Jones
# ================================================================
! ZINDO/S 
! NOPOP
! NOMOPRINT
* xyz 0   1
 C  3.17807  -1.11716  -3.65988
 C  3.26049  -2.25320  -2.85334
 C  3.38535  -1.97038  -1.45739
 C  3.40160  -0.60411  -1.16014
 S  3.26257  0.17117  -2.61960
 H  3.67314  -3.23674  -3.30192
 C  3.45987  -3.30686  -0.55899
 C  2.09857  -4.26154  -1.15401
 C  1.30424  -5.77665  -0.99809
 H  0.17120  -5.56232  -0.93745
 H  1.65699  -6.26156  -0.01424
 H  2.34398  -4.33995  -2.27833
 H  1.22556  -3.51464  -1.00052
 H  3.33244  -3.10696  0.56545
 H  4.43725  -3.89375  -0.77019
 C  1.59767  -6.78372  -2.25338
 C  0.50879  -8.07223  -2.37443
 C  0.93391  -9.41871  -1.47165
 H  0.27872  -10.31660  -1.79492
 H  0.75882  -9.19415  -0.34948
 H  2.04977  -9.66805  -1.64932
 H  0.44977  -8.38550  -3.48307
 H  -0.52748  -7.70766  -2.02662
 H  2.66252  -7.22063  -2.16280
 H  1.52159  -6.19635  -3.24825
 C  2.88964  4.68126  1.86545
 C  1.76206  4.13289  1.25248
 C  0.61142  4.98111  1.28092
 C  0.83154  6.20545  1.91957
 S  2.41595  6.17449  2.40857
 H  1.31245  3.09220  1.73007
 C  -0.73656  4.43014  0.59324
 C  -2.31153  4.80355  0.98308
 C  -2.96129  3.88491  2.22835
 H  -2.63282  2.78647  2.06867
 H  -2.50900  4.26543  3.22221
 H  -2.36042  5.91123  1.28119
 H  -2.95736  4.63857  0.03677
 H  -0.71308  3.25315  0.62503
 H  -0.65170  4.70939  -0.54525
 C  -4.58521  3.95786  2.29024
 C  -5.22245  5.36843  2.95508
 C  -5.57134  6.52999  1.78591
 H  -4.59820  6.84186  1.24492
 H  -6.04606  7.45290  2.29753
 H  -6.31623  6.08487  1.01971
 H  -6.19099  5.11208  3.52194
 H  -4.44507  5.80150  3.68130
 H  -5.01572  3.84000  1.22242
 H  -4.96959  3.07471  2.93604
 H  3.08175  -1.08480  -4.71499
 H  3.48526  -0.15745  -0.20249
 H  3.84700  4.23682  1.96317
 H  0.13215  6.98924  2.06144
*
