# ================================================================
# Orca input file made by Matty Jones
# ================================================================
! ZINDO/S 
! NOPOP
! NOMOPRINT
* xyz 0   1
 C  -15.48194  -7.38897  2.57459
 C  -14.52127  -6.55931  3.15482
 C  -13.96614  -7.06953  4.36964
 C  -14.49113  -8.30831  4.75059
 S  -15.59893  -8.70162  3.58076
 H  -14.21533  -5.55680  2.70793
 C  -12.85340  -6.21299  5.16669
 C  -11.46531  -5.66605  4.32326
 C  -11.45850  -4.24309  3.38292
 H  -10.59965  -4.40528  2.61551
 H  -12.45789  -4.23125  2.80254
 H  -11.16602  -6.52547  3.61552
 H  -10.64117  -5.52444  5.11946
 H  -13.34461  -5.25764  5.61081
 H  -12.44125  -6.84713  6.05600
 C  -11.23505  -2.76666  4.03719
 C  -11.18285  -1.50416  2.89791
 C  -9.64803  -0.99195  2.42961
 H  -9.01023  -0.79156  3.37426
 H  -9.74664  -0.01397  1.81729
 H  -9.14468  -1.80706  1.78281
 H  -11.72677  -1.87040  1.94825
 H  -11.74716  -0.60157  3.33765
 H  -12.10910  -2.53461  4.75806
 H  -10.24485  -2.74459  4.63076
 C  16.45830  4.23279  -5.23545
 C  15.23243  3.71663  -5.65818
 C  14.10264  4.25470  -4.96655
 C  14.43811  5.20050  -3.99278
 S  16.09165  5.31957  -4.03814
 H  14.88244  3.49524  -6.78475
 C  12.59828  3.77260  -5.34554
 C  11.35831  3.35603  -4.22665
 C  11.55378  3.29036  -2.54472
 H  10.68521  2.66437  -2.10823
 H  12.55391  2.76456  -2.31253
 H  10.48930  4.08516  -4.43529
 H  11.02353  2.28852  -4.52682
 H  12.70466  2.81214  -6.00336
 H  12.11661  4.60445  -6.01367
 C  11.52643  4.78413  -1.90825
 C  10.07313  5.54401  -1.53615
 C  9.59158  6.63302  -2.73510
 H  8.43827  6.63561  -2.82237
 H  10.04934  6.32107  -3.75153
 H  9.95682  7.69791  -2.46944
 H  9.29811  4.69982  -1.45497
 H  10.19295  6.06787  -0.52305
 H  12.21766  4.84589  -0.98881
 H  11.92667  5.41756  -2.78866
 H  -16.02274  -7.21631  1.67942
 H  -14.23472  -8.87693  5.60763
 H  17.42079  3.98275  -5.60245
 H  13.77448  5.73041  -3.35844
*
