# ================================================================
# Orca input file made by Matty Jones
# ================================================================
! ZINDO/S 
! NOPOP
! NOMOPRINT
* xyz 0   1
 C  -10.89977  -12.65787  2.86149
 C  -11.68059  -13.58690  3.55078
 C  -10.92677  -14.52307  4.32512
 C  -9.54372  -14.33229  4.24687
 S  -9.32936  -13.03363  3.23794
 H  -12.82237  -13.58910  3.53715
 C  -11.54780  -15.74258  5.21145
 C  -12.80488  -15.68301  6.38483
 C  -13.14186  -17.18216  7.17218
 H  -13.21714  -16.91161  8.29721
 H  -12.18166  -17.81421  7.01560
 H  -13.76673  -15.35193  5.85276
 H  -12.51025  -14.92236  7.19052
 H  -10.66322  -16.23277  5.80268
 H  -11.94581  -16.54742  4.45756
 C  -14.41030  -18.15635  6.82605
 C  -14.46478  -19.64922  7.64952
 C  -13.85576  -20.95589  6.77513
 H  -12.73275  -20.78712  6.55963
 H  -14.43663  -21.04223  5.77685
 H  -13.99589  -21.92800  7.38711
 H  -13.84189  -19.54800  8.61377
 H  -15.56062  -19.87442  7.92087
 H  -14.42182  -18.38807  5.69549
 H  -15.38742  -17.60194  7.10421
 C  10.66306  13.34533  -8.18708
 C  11.26073  14.04020  -7.13453
 C  10.42407  15.03793  -6.54394
 C  9.15937  15.13138  -7.13312
 S  9.14312  13.99066  -8.33683
 H  12.32503  13.85151  -6.77898
 C  10.84780  16.00361  -5.31731
 C  12.17265  17.01672  -5.60515
 C  12.58195  18.11413  -4.37827
 H  11.61632  18.65768  -4.05035
 H  12.99823  17.51448  -3.48387
 H  13.09187  16.35260  -5.80077
 H  11.92748  17.63042  -6.54971
 H  9.96607  16.65859  -4.94191
 H  11.16953  15.32849  -4.40862
 C  13.68141  19.20558  -4.88784
 C  15.28533  18.76160  -4.62148
 C  15.89350  17.74073  -5.81094
 H  15.12587  17.63360  -6.66993
 H  16.09637  16.70051  -5.34378
 H  16.88105  18.17718  -6.22682
 H  15.92267  19.72298  -4.61312
 H  15.36486  18.24030  -3.59830
 H  13.50538  20.20792  -4.33484
 H  13.54943  19.39223  -6.02228
 H  -11.23916  -11.87676  2.23040
 H  -8.79010  -14.89906  4.73106
 H  11.09068  12.56878  -8.76820
 H  8.37524  15.79282  -6.86625
*
