# ================================================================
# Orca input file made by Matty Jones
# ================================================================
! ZINDO/S 
! NOPOP
! NOMOPRINT
* xyz 0   1
 C  14.95652  22.49991  -15.66514
 C  16.14916  23.05548  -15.19949
 C  15.97187  24.19928  -14.36012
 C  14.63247  24.54865  -14.16197
 S  13.75046  23.43958  -15.02362
 H  17.17383  22.62375  -15.45184
 C  17.36101  24.83771  -13.82416
 C  17.79835  26.47074  -13.86621
 C  17.33546  27.38662  -12.53390
 H  16.24632  27.14268  -12.25836
 H  17.41723  28.50420  -12.81834
 H  18.94935  26.52220  -13.94938
 H  17.33175  26.93597  -14.81186
 H  17.44356  24.55351  -12.68906
 H  18.25346  24.30016  -14.35923
 C  18.30867  27.05878  -11.26971
 C  17.96438  27.90464  -9.85533
 C  18.95322  29.24191  -9.61864
 H  18.60554  30.10814  -10.30090
 H  20.04652  28.95763  -9.87391
 H  18.88986  29.56691  -8.50947
 H  16.87226  28.27235  -9.91043
 H  18.08352  27.18941  -8.96025
 H  19.40519  27.28723  -11.56163
 H  18.22654  25.93178  -11.01488
 C  -12.90404  -25.85136  11.32046
 C  -14.21833  -25.55152  11.68189
 C  -14.39050  -25.26398  13.07184
 C  -13.20618  -25.33714  13.81168
 S  -12.02496  -25.74796  12.72247
 H  -15.08364  -25.50349  10.93791
 C  -15.73349  -24.87145  13.90975
 C  -17.27042  -25.60162  14.23510
 C  -18.84175  -25.71400  13.56569
 H  -19.58893  -25.49742  14.42384
 H  -18.93563  -24.87523  12.77753
 H  -16.96597  -26.71071  14.38364
 H  -17.50685  -25.15496  15.28570
 H  -15.37392  -24.63179  15.00237
 H  -16.08578  -23.84588  13.45639
 C  -19.19722  -27.15418  12.89802
 C  -19.57738  -27.22893  11.25860
 C  -21.22516  -27.44192  10.97616
 H  -21.80984  -26.51651  11.34729
 H  -21.58659  -28.38465  11.54377
 H  -21.39882  -27.58771  9.84136
 H  -19.25579  -26.23921  10.76301
 H  -19.00239  -28.10544  10.78365
 H  -18.30543  -27.87779  13.05500
 H  -20.10981  -27.59359  13.46839
 H  14.84523  21.65531  -16.29591
 H  14.25905  25.35379  -13.58239
 H  -12.54381  -26.09402  10.35353
 H  -13.08811  -25.16588  14.85107
*
