# ================================================================
# Orca input file made by Matty Jones
# ================================================================
! ZINDO/S 
! NOPOP
! NOMOPRINT
* xyz 0   1
 C  13.50656  -16.11667  28.06530
 C  14.11440  -15.67814  29.24263
 C  13.29584  -14.81502  30.03588
 C  12.03528  -14.57078  29.48213
 S  12.00033  -15.42360  28.06020
 H  15.03687  -16.17507  29.72229
 C  13.97479  -14.23358  31.36955
 C  15.51828  -13.65892  31.02897
 C  16.56717  -13.06513  32.20022
 H  16.45712  -11.91159  32.21873
 H  17.64630  -13.31687  31.86006
 H  16.10477  -14.51492  30.52066
 H  15.35967  -12.80599  30.26393
 H  13.31595  -13.39111  31.82945
 H  14.03457  -15.08839  32.15799
 C  16.32317  -13.65881  33.68919
 C  15.17255  -12.78155  34.54817
 C  15.84893  -11.43346  35.28859
 H  16.61183  -11.77402  36.08828
 H  15.01018  -10.81063  35.78662
 H  16.38530  -10.79146  34.48889
 H  14.34198  -12.43833  33.82898
 H  14.72598  -13.46495  35.36103
 H  17.31809  -13.63479  34.28113
 H  15.96466  -14.75730  33.62320
 C  -10.52581  14.22830  -33.26960
 C  -11.86918  14.42054  -32.94358
 C  -12.09631  14.74057  -31.56871
 C  -10.92637  14.80133  -30.80524
 S  -9.68990  14.46070  -31.85668
 H  -12.71896  14.33204  -33.70092
 C  -13.45769  15.05074  -30.71677
 C  -14.96815  14.28781  -30.31914
 C  -16.55885  14.18567  -30.92020
 H  -17.23617  14.48538  -30.02055
 H  -16.63681  15.03455  -31.70772
 H  -14.64860  13.17294  -30.25822
 H  -15.14105  14.67257  -29.23592
 H  -13.88232  16.04365  -31.20731
 H  -13.09786  15.35725  -29.64211
 C  -17.21182  12.84320  -31.56436
 C  -17.20674  12.76732  -33.24208
 C  -18.41700  11.74473  -33.81273
 H  -18.39541  10.74737  -33.22842
 H  -18.25215  11.54720  -34.94012
 H  -19.44296  12.26143  -33.65825
 H  -17.37358  13.82131  -33.67207
 H  -16.18706  12.35885  -33.58883
 H  -16.63139  11.91710  -31.17619
 H  -18.31151  12.74869  -31.21136
 H  13.92055  -16.75767  27.32954
 H  11.26361  -13.96697  29.88653
 H  -10.12455  13.98503  -34.22008
 H  -10.84653  15.01945  -29.77100
*
