# ================================================================
# Orca input file made by Matty Jones
# ================================================================
! ZINDO/S 
! NOPOP
! NOMOPRINT
* xyz 0   1
 C  -16.32396  -11.07923  7.32534
 C  -14.93885  -10.91067  7.35592
 C  -14.31097  -11.44754  8.52290
 C  -15.20482  -12.04302  9.41830
 S  -16.70385  -11.87629  8.72871
 H  -14.35733  -10.50125  6.46371
 C  -12.71206  -11.30947  8.62765
 C  -12.23891  -9.70167  8.27092
 C  -10.60517  -9.30008  8.28319
 H  -10.54531  -8.21455  8.69360
 H  -10.08417  -9.99975  9.04452
 H  -12.63919  -9.45410  7.22204
 H  -12.76787  -9.02738  9.04444
 H  -12.33882  -11.50343  9.70992
 H  -12.17514  -12.02144  7.89998
 C  -9.77750  -9.34051  6.87484
 C  -10.59253  -9.27920  5.38997
 C  -11.03666  -10.75683  4.72018
 H  -10.63209  -10.81946  3.63640
 H  -12.19126  -10.83893  4.70621
 H  -10.59434  -11.62099  5.34819
 H  -11.53388  -8.62816  5.50988
 H  -9.87897  -8.76343  4.63927
 H  -9.16203  -10.32375  6.85766
 H  -9.03347  -8.45177  6.86921
 C  10.44099  6.89885  -5.50660
 C  10.54051  8.03370  -6.31288
 C  10.04530  9.22838  -5.70314
 C  9.55226  9.03590  -4.40885
 S  9.75218  7.42043  -4.09147
 H  10.73104  7.95424  -7.43675
 C  10.15566  10.57889  -6.58671
 C  11.71609  10.61639  -7.32674
 C  12.25767  11.80514  -8.40382
 H  12.45236  12.76332  -7.78976
 H  11.40663  12.00651  -9.15874
 H  12.46235  10.61129  -6.44489
 H  11.83234  9.63823  -7.92348
 H  9.36215  10.58202  -7.42903
 H  10.03201  11.53024  -5.93854
 C  13.62256  11.39956  -9.21462
 C  15.09983  12.15331  -8.87388
 C  16.12434  11.44035  -7.74887
 H  15.56520  11.31141  -6.74517
 H  17.04624  12.12531  -7.59470
 H  16.47332  10.40923  -8.14170
 H  15.68197  12.21105  -9.87137
 H  14.86730  13.22364  -8.51420
 H  13.42957  11.55785  -10.34703
 H  13.81451  10.26551  -9.04588
 H  -16.99217  -10.76412  6.56521
 H  -14.97286  -12.50440  10.34401
 H  10.74225  5.91166  -5.74802
 H  9.13756  9.76903  -3.76531
*
