# ================================================================
# Orca input file made by Matty Jones
# ================================================================
! ZINDO/S 
! NOPOP
! NOMOPRINT
* xyz 0   1
 C  -12.37391  -3.54966  9.12397
 C  -13.15473  -4.47869  9.81326
 C  -12.40091  -5.41486  10.58759
 C  -11.01786  -5.22408  10.50935
 S  -10.80351  -3.92543  9.50041
 H  -14.29651  -4.48089  9.79962
 C  -13.02194  -6.63437  11.47393
 C  -14.27902  -6.57480  12.64730
 C  -14.61600  -8.07396  13.43466
 H  -14.69128  -7.80340  14.55969
 H  -13.65580  -8.70600  13.27808
 H  -15.24087  -6.24373  12.11524
 H  -13.98440  -5.81415  13.45299
 H  -12.13736  -7.12456  12.06516
 H  -13.41995  -7.43922  10.72004
 C  -15.88444  -9.04814  13.08852
 C  -15.93892  -10.54101  13.91199
 C  -15.32990  -11.84769  13.03761
 H  -14.20689  -11.67891  12.82211
 H  -15.91078  -11.93402  12.03932
 H  -15.47003  -12.81980  13.64958
 H  -15.31603  -10.43980  14.87625
 H  -17.03476  -10.76621  14.18335
 H  -15.89596  -9.27986  11.95796
 H  -16.86157  -8.49373  13.36669
 C  18.88575  8.28119  -14.07696
 C  17.61846  7.75271  -13.82681
 C  16.79748  8.57421  -12.99292
 C  17.41963  9.75735  -12.58253
 S  18.93149  9.72522  -13.26346
 H  17.25617  6.75246  -14.23891
 C  15.31734  8.01040  -12.64349
 C  13.88674  8.92721  -12.56543
 C  12.50094  7.97339  -12.28389
 H  11.63776  8.48837  -12.86100
 H  12.70328  6.94382  -12.77245
 H  13.76112  9.51965  -13.53759
 H  13.92284  9.61420  -11.65646
 H  15.37205  7.48810  -11.59350
 H  15.06117  7.17666  -13.42440
 C  12.02315  7.73529  -10.74585
 C  10.68494  6.70375  -10.60807
 C  11.11333  5.08791  -10.41722
 H  11.67100  4.72399  -11.36345
 H  10.15804  4.45384  -10.26031
 H  11.80372  4.98364  -9.49418
 H  10.04785  6.80092  -11.56272
 H  10.06545  7.02867  -9.69380
 H  12.88903  7.27876  -10.13257
 H  11.72509  8.74846  -10.27428
 H  -12.71330  -2.76855  8.49287
 H  -10.26424  -5.79085  10.99353
 H  19.65647  7.85027  -14.66338
 H  17.01058  10.51594  -11.96543
*
