# ================================================================
# Orca input file made by Matty Jones
# ================================================================
! ZINDO/S 
! NOPOP
! NOMOPRINT
* xyz 0   1
 C  3.14832  -1.73392  -3.89119
 C  3.75616  -1.29538  -2.71386
 C  2.93760  -0.43226  -1.92061
 C  1.67704  -0.18802  -2.47436
 S  1.64209  -1.04084  -3.89630
 H  4.67863  -1.79231  -2.23421
 C  3.61656  0.14918  -0.58694
 C  5.16005  0.72384  -0.92753
 C  6.20893  1.31762  0.24372
 H  6.09888  2.47117  0.26224
 H  7.28806  1.06588  -0.09644
 H  5.74653  -0.13216  -1.43584
 H  5.00143  1.57677  -1.69256
 H  2.95771  0.99165  -0.12704
 H  3.67633  -0.70563  0.20150
 C  5.96493  0.72395  1.73269
 C  4.81431  1.60120  2.59167
 C  5.49069  2.94930  3.33210
 H  6.25359  2.60874  4.13178
 H  4.65194  3.57213  3.83012
 H  6.02706  3.59129  2.53240
 H  3.98374  1.94443  1.87249
 H  4.36774  0.91781  3.40454
 H  6.95985  0.74796  2.32463
 H  5.60642  -0.37454  1.66671
 C  0.33232  0.36456  -1.71684
 C  -0.81911  -0.39619  -1.50861
 C  -1.86068  0.29822  -0.81782
 C  -1.53003  1.61393  -0.47886
 S  0.01193  1.84557  -1.04376
 H  -0.87387  -1.51202  -1.73738
 C  -3.18200  -0.61412  -0.59631
 C  -4.81132  -0.16944  -0.67444
 C  -5.49218  0.18551  0.81954
 H  -4.68278  0.64595  1.50169
 H  -6.34048  0.95171  0.66423
 H  -4.89474  0.76799  -1.34157
 H  -5.40369  -1.03221  -1.15804
 H  -3.08685  -1.09755  0.47009
 H  -3.12927  -1.49909  -1.36288
 C  -6.07718  -1.18660  1.49124
 C  -7.67895  -1.58249  1.10968
 C  -7.90844  -2.55071  -0.24987
 H  -8.67817  -3.37908  0.00014
 H  -6.90603  -3.03642  -0.56071
 H  -8.31189  -1.90014  -1.11798
 H  -8.25930  -0.59986  0.94934
 H  -8.12088  -2.14256  2.01643
 H  -5.42001  -2.08162  1.16494
 H  -6.01562  -1.09255  2.64284
 H  3.56231  -2.37491  -4.62695
 H  -2.13771  2.31621  0.03215
*
