# ================================================================
# Orca input file made by Matty Jones
# ================================================================
! ZINDO/S 
! NOPOP
! NOMOPRINT
* xyz 0   1
 C  -17.41255  -10.08032  3.50256
 C  -16.23855  -9.44479  3.90967
 C  -15.67647  -9.97229  5.11386
 C  -16.41035  -11.02968  5.66038
 S  -17.69792  -11.25314  4.63928
 H  -15.77218  -8.56339  3.35036
 C  -14.30717  -9.41831  5.78458
 C  -13.82465  -7.78836  6.11953
 C  -12.95473  -6.82409  5.00558
 H  -11.90484  -6.68169  5.48251
 H  -12.83263  -7.45580  4.04622
 H  -14.79207  -7.21793  6.36804
 H  -13.16418  -7.85715  7.06283
 H  -14.21123  -9.90978  6.83929
 H  -13.41989  -9.82149  5.14137
 C  -13.51224  -5.34377  4.60582
 C  -12.91935  -4.69399  3.14656
 C  -11.51812  -3.75873  3.11150
 H  -10.59449  -4.45252  3.05368
 H  -11.46090  -3.10341  4.06196
 H  -11.54559  -3.07889  2.17276
 H  -12.74646  -5.58548  2.43392
 H  -13.76637  -4.03258  2.72207
 H  -14.66346  -5.37819  4.52180
 H  -13.22292  -4.59428  5.43929
 C  11.95337  3.66143  -3.05315
 C  12.04529  4.88367  -3.72067
 C  11.61905  6.00629  -2.94459
 C  11.18838  5.66881  -1.65776
 S  11.35529  4.02234  -1.54944
 H  11.98343  4.91096  -4.87653
 C  11.73950  7.43570  -3.69786
 C  13.21384  7.39271  -4.62700
 C  14.08950  8.43683  -5.65917
 H  13.45814  9.39134  -5.80341
 H  14.18744  7.89791  -6.67934
 H  13.99009  7.04619  -3.84396
 H  13.01140  6.53371  -5.37593
 H  10.85426  7.60169  -4.42234
 H  11.81095  8.30900  -2.94596
 C  15.57705  8.82645  -5.11950
 C  16.72941  8.95741  -6.35778
 C  18.29673  9.22602  -5.80665
 H  18.26183  9.78470  -4.79431
 H  18.87372  9.86180  -6.58243
 H  18.82959  8.20716  -5.66855
 H  16.72344  7.97619  -6.96137
 H  16.42696  9.83424  -7.03996
 H  15.96282  8.02432  -4.38477
 H  15.53424  9.84558  -4.57582
 H  -17.99824  -9.85972  2.64705
 H  -16.18986  -11.57436  6.54260
 H  12.21149  2.70426  -3.42838
 H  10.83022  6.32743  -0.90840
*
