# ================================================================
# Orca input file made by Matty Jones
# ================================================================
! ZINDO/S 
! NOPOP
! NOMOPRINT
* xyz 0   1
 C  -10.63813  -6.45830  1.72555
 C  -10.93790  -7.82065  1.68035
 C  -10.64202  -8.52400  2.88948
 C  -10.10591  -7.71295  3.89452
 S  -10.02730  -6.18971  3.24339
 H  -11.36982  -8.35020  0.75343
 C  -10.94876  -10.11045  2.98204
 C  -11.29828  -11.00224  4.39080
 C  -12.83170  -11.18049  5.08957
 H  -12.68737  -11.28624  6.23198
 H  -13.43459  -10.21944  4.87680
 H  -11.03936  -12.09565  4.05113
 H  -10.56206  -10.76299  5.21389
 H  -10.02030  -10.66512  2.52372
 H  -11.85646  -10.34383  2.28478
 C  -13.62309  -12.48056  4.51259
 C  -13.23972  -13.96167  5.24129
 C  -14.22427  -14.44266  6.51729
 H  -13.69458  -14.21302  7.52013
 H  -14.41868  -15.58173  6.43540
 H  -15.23168  -13.87621  6.46975
 H  -12.15833  -13.89095  5.63575
 H  -13.29377  -14.77466  4.42519
 H  -14.76121  -12.31817  4.65198
 H  -13.40643  -12.58933  3.38143
 C  15.85216  12.73760  -5.51558
 C  14.86806  12.14236  -4.72493
 C  14.22908  13.04002  -3.81380
 C  14.71107  14.35071  -3.88535
 S  15.88591  14.33024  -5.05571
 H  14.67911  11.01908  -4.69344
 C  13.05471  12.58043  -2.80665
 C  11.56186  12.13846  -3.47033
 C  11.26391  10.63026  -4.15979
 H  12.26046  10.38190  -4.68921
 H  10.47077  10.84857  -4.98751
 H  11.32285  12.93168  -4.27651
 H  10.79475  12.24929  -2.60781
 H  12.83232  13.42532  -2.03782
 H  13.42355  11.65539  -2.19719
 C  10.76422  9.27867  -3.40432
 C  10.46991  8.05804  -4.55413
 C  8.89071  7.92826  -5.12352
 H  8.69765  6.83708  -5.45963
 H  8.74574  8.63985  -6.02478
 H  8.15092  8.21163  -4.28155
 H  10.80411  7.04938  -4.11832
 H  11.08301  8.31809  -5.49058
 H  9.79281  9.47180  -2.81536
 H  11.58225  8.89915  -2.68353
 H  -10.77262  -5.74560  0.95251
 H  -9.81142  -8.00962  4.86861
 H  16.45160  12.27009  -6.25430
 H  14.39227  15.18309  -3.31166
*
