# ================================================================
# Orca input file made by Matty Jones
# ================================================================
! ZINDO/S 
! NOPOP
! NOMOPRINT
* xyz 0   1
 C  -14.36243  -8.42321  6.55064
 C  -12.97924  -8.23722  6.56074
 C  -12.30855  -8.90222  7.63416
 C  -13.16646  -9.61691  8.47590
 S  -14.68829  -9.39159  7.85645
 H  -12.42141  -7.73497  5.70221
 C  -10.70525  -8.73403  7.72408
 C  -10.24906  -7.09958  7.53453
 C  -8.63063  -6.62837  7.52234
 H  -8.57776  -5.60246  8.05850
 H  -8.05020  -7.40078  8.16076
 H  -10.70799  -6.71997  6.54887
 H  -10.74784  -6.53637  8.41321
 H  -10.30522  -9.05551  8.76628
 H  -10.17923  -9.36147  6.90651
 C  -7.90033  -6.49111  6.06799
 C  -8.73420  -6.87047  4.64178
 C  -9.54847  -5.59600  3.89912
 H  -8.99968  -5.31120  2.92014
 H  -9.57585  -4.68188  4.60739
 H  -10.62989  -5.92716  3.65154
 H  -7.95327  -7.26491  3.88741
 H  -9.49139  -7.70761  4.86847
 H  -7.55070  -5.39162  5.94747
 H  -6.95774  -7.16643  6.07558
 C  14.56723  7.20112  -8.97474
 C  13.67442  6.21534  -8.55165
 C  12.61583  6.70292  -7.72344
 C  12.67304  8.08067  -7.49138
 S  14.01155  8.61554  -8.31159
 H  13.88537  5.11832  -8.19781
 C  11.53474  5.61859  -7.20842
 C  9.90442  5.83061  -6.77961
 C  9.14126  7.30077  -6.46280
 H  9.71305  8.16651  -6.95780
 H  8.06107  7.26703  -6.86466
 H  9.30289  5.38042  -7.66570
 H  9.73562  5.14707  -5.86105
 H  11.99370  5.11053  -6.25644
 H  11.47221  4.78056  -8.02897
 C  9.15275  7.41886  -4.83768
 C  8.44116  8.76169  -4.14906
 C  7.67960  9.83781  -5.18811
 H  7.13786  9.24592  -6.02328
 H  8.47298  10.53524  -5.66198
 H  6.89855  10.47618  -4.62623
 H  7.73283  8.37672  -3.33722
 H  9.31507  9.27813  -3.63991
 H  8.59061  6.49869  -4.40118
 H  10.24905  7.36611  -4.46443
 H  -15.05796  -8.02858  5.85486
 H  -12.89993  -10.18396  9.33089
 H  15.42061  7.07266  -9.59023
 H  12.00150  8.66158  -6.91244
*
