# ================================================================
# Orca input file made by Matty Jones
# ================================================================
! ZINDO/S 
! NOPOP
! NOMOPRINT
* xyz 0   1
 C  27.83139  -0.69648  11.43115
 C  27.05057  -1.62551  12.12044
 C  27.80440  -2.56167  12.89478
 C  29.18744  -2.37090  12.81654
 S  29.40180  -1.07224  11.80760
 H  25.90879  -1.62771  12.10681
 C  27.18336  -3.78119  13.78112
 C  25.92628  -3.72161  14.95449
 C  25.58930  -5.22077  15.74184
 H  25.51402  -4.95021  16.86688
 H  26.54950  -5.85282  15.58526
 H  24.96443  -3.39054  14.42243
 H  26.22091  -2.96097  15.76018
 H  28.06794  -4.27138  14.37234
 H  26.78535  -4.58603  13.02723
 C  24.32086  -6.19495  15.39571
 C  24.26638  -7.68782  16.21918
 C  24.87540  -8.99450  15.34480
 H  25.99841  -8.82572  15.12930
 H  24.29453  -9.08083  14.34651
 H  24.73527  -9.96661  15.95677
 H  24.88927  -7.58661  17.18343
 H  23.17055  -7.91303  16.49054
 H  24.30934  -6.42667  14.26515
 H  23.34374  -5.64055  15.67388
 C  -21.35542  5.79728  -15.94238
 C  -22.50686  5.03653  -15.73415
 C  -23.54843  5.73094  -15.04336
 C  -23.21778  7.04665  -14.70440
 S  -21.67581  7.27830  -15.26930
 H  -22.56161  3.92070  -15.96292
 C  -24.86975  4.81860  -14.82185
 C  -26.49906  5.26328  -14.89998
 C  -27.17993  5.61823  -13.40599
 H  -26.37052  6.07868  -12.72385
 H  -28.02822  6.38443  -13.56131
 H  -26.58248  6.20072  -15.56711
 H  -27.09143  4.40052  -15.38358
 H  -24.77459  4.33517  -13.75545
 H  -24.81701  3.93364  -15.58842
 C  -27.76492  4.24613  -12.73430
 C  -29.36670  3.85023  -13.11586
 C  -29.59618  2.88202  -14.47541
 H  -30.36591  2.05365  -14.22540
 H  -28.59377  2.39630  -14.78625
 H  -29.99963  3.53258  -15.34352
 H  -29.94704  4.83286  -13.27620
 H  -29.80863  3.29016  -12.20911
 H  -27.10775  3.35111  -13.06060
 H  -27.70336  4.34018  -11.58270
 H  27.49200  0.08464  10.80006
 H  29.94106  -2.93766  13.30072
 H  -20.46405  5.49251  -16.42835
 H  -23.82545  7.74894  -14.19339
*
