# ================================================================
# Orca input file made by Matty Jones
# ================================================================
! ZINDO/S 
! NOPOP
! NOMOPRINT
* xyz 0   1
 C  -11.15974  -13.43784  -0.39756
 C  -10.19907  -12.60819  0.18267
 C  -9.64394  -13.11840  1.39749
 C  -10.16893  -14.35718  1.77844
 S  -11.27673  -14.75049  0.60861
 H  -9.89313  -11.60568  -0.26422
 C  -8.53120  -12.26186  2.19454
 C  -7.14311  -11.71493  1.35111
 C  -7.13630  -10.29197  0.41077
 H  -6.27745  -10.45415  -0.35664
 H  -8.13569  -10.28012  -0.16961
 H  -6.84382  -12.57434  0.64337
 H  -6.31897  -11.57331  2.14731
 H  -9.02241  -11.30652  2.63866
 H  -8.11905  -12.89600  3.08385
 C  -6.91284  -8.81553  1.06504
 C  -6.86064  -7.55303  -0.07424
 C  -5.32582  -7.04083  -0.54254
 H  -4.68803  -6.84044  0.40212
 H  -5.42444  -6.06284  -1.15486
 H  -4.82247  -7.85593  -1.18934
 H  -7.40456  -7.91927  -1.02390
 H  -7.42496  -6.65044  0.36550
 H  -7.78690  -8.58349  1.78591
 H  -5.92265  -8.79347  1.65861
 C  12.74642  10.35362  -0.36614
 C  11.61824  9.63669  0.03524
 C  10.53946  10.45488  0.49465
 C  10.81720  11.82480  0.45584
 S  12.36119  11.94986  -0.13652
 H  11.13633  8.62406  -0.34205
 C  9.08494  9.97208  1.00778
 C  8.06173  9.38457  -0.20948
 C  7.29706  10.72955  -0.95220
 H  8.04527  11.60983  -0.82979
 H  7.26218  10.45968  -2.08042
 H  8.66893  8.81350  -0.99481
 H  7.25439  8.71504  0.25452
 H  8.50945  10.76255  1.61244
 H  9.23961  9.06246  1.73279
 C  5.82564  11.29642  -0.53493
 C  4.58632  10.68926  -1.51694
 C  4.37021  11.56376  -2.94302
 H  4.15136  12.67074  -2.69059
 H  3.48198  11.11398  -3.53299
 H  5.33344  11.49238  -3.58076
 H  3.60178  10.72993  -0.92059
 H  4.83272  9.59849  -1.78784
 H  5.58764  11.00173  0.55662
 H  5.80969  12.44945  -0.62007
 H  -11.70054  -13.26519  -1.29273
 H  -9.91252  -14.92581  2.63548
 H  13.65744  9.96053  -0.73914
 H  10.17530  12.61738  0.74458
*
