# ================================================================
# Orca input file made by Matty Jones
# ================================================================
! ZINDO/S 
! NOPOP
! NOMOPRINT
* xyz 0   1
 C  -19.58812  -7.34431  4.06499
 C  -18.62744  -6.51465  4.64522
 C  -18.07232  -7.02487  5.86004
 C  -18.59730  -8.26365  6.24099
 S  -19.70510  -8.65695  5.07116
 H  -18.32151  -5.51214  4.19833
 C  -16.95958  -6.16833  6.65710
 C  -15.57149  -5.62139  5.81366
 C  -15.56468  -4.19843  4.87333
 H  -14.70583  -4.36062  4.10592
 H  -16.56406  -4.18659  4.29294
 H  -15.27219  -6.48080  5.10593
 H  -14.74734  -5.47977  6.60987
 H  -17.45078  -5.21298  7.10121
 H  -16.54742  -6.80246  7.54640
 C  -15.34122  -2.72200  5.52760
 C  -15.28902  -1.45950  4.38832
 C  -13.75420  -0.94729  3.92002
 H  -13.11641  -0.74690  4.86467
 H  -13.85282  0.03069  3.30770
 H  -13.25085  -1.76239  3.27321
 H  -15.83294  -1.82574  3.43865
 H  -15.85334  -0.55691  4.82806
 H  -16.21528  -2.48995  6.24847
 H  -14.35103  -2.69993  6.12117
 C  13.84769  1.02403  -6.70897
 C  14.73351  2.00454  -6.25973
 C  14.14727  2.95719  -5.36920
 C  12.79172  2.72778  -5.11398
 S  12.39541  1.37731  -5.99122
 H  15.83454  2.04488  -6.54537
 C  14.99413  4.19495  -4.75763
 C  15.92488  5.10834  -5.82021
 C  16.60727  6.37727  -4.93736
 H  16.66087  6.07568  -3.82499
 H  15.86060  7.26404  -5.02146
 H  16.74665  4.45439  -6.28619
 H  15.24169  5.53721  -6.64060
 H  14.41444  4.99676  -4.17075
 H  15.74677  3.73015  -3.99133
 C  18.04827  6.86343  -5.49673
 C  19.36362  6.10513  -4.74696
 C  19.00568  5.07274  -3.46284
 H  18.52504  5.67886  -2.60261
 H  19.98637  4.58548  -3.08546
 H  18.27872  4.24705  -3.81887
 H  19.91233  5.48385  -5.54815
 H  20.06550  6.92946  -4.35121
 H  18.15861  8.00308  -5.32946
 H  18.12015  6.64799  -6.63152
 H  -20.12891  -7.17165  3.16983
 H  -18.34089  -8.83227  7.09804
 H  14.05885  0.22250  -7.36970
 H  12.15149  3.29771  -4.49037
*
