# ================================================================
# Orca input file made by Matty Jones
# ================================================================
! ZINDO/S 
! NOPOP
! NOMOPRINT
* xyz 0   1
 C  27.13871  -6.57345  1.72974
 C  26.57787  -7.76094  2.20220
 C  27.11303  -8.20251  3.45236
 C  28.10143  -7.35945  3.96966
 S  28.25898  -6.12935  2.86854
 H  25.74979  -8.32754  1.65633
 C  26.59940  -9.57293  4.13646
 C  24.94585  -10.00224  4.20065
 C  24.45583  -10.95466  2.89009
 H  24.64038  -10.33888  1.92934
 H  25.15502  -11.87869  2.87086
 H  24.76422  -10.59832  5.16755
 H  24.32085  -9.03843  4.20826
 H  26.85734  -9.58398  5.26854
 H  27.13959  -10.46878  3.63562
 C  22.91118  -11.47418  2.91345
 C  22.06797  -11.12888  1.49145
 C  20.47678  -11.67368  1.49211
 H  20.40870  -12.67022  2.07595
 H  20.12991  -11.83909  0.39997
 H  19.80239  -10.88004  1.99669
 H  22.62176  -11.63873  0.61837
 H  22.06580  -9.98795  1.33551
 H  22.88700  -12.61978  3.06900
 H  22.34294  -10.97026  3.78561
 C  -26.70688  6.12229  -1.29712
 C  -26.61496  7.34452  -1.96465
 C  -27.04120  8.46714  -1.18857
 C  -27.47187  8.12966  0.09827
 S  -27.30496  6.48320  0.20658
 H  -26.67682  7.37181  -3.12051
 C  -26.92075  9.89655  -1.94183
 C  -25.44642  9.85357  -2.87097
 C  -24.57075  10.89768  -3.90315
 H  -25.20212  11.85220  -4.04739
 H  -24.47282  10.35876  -4.92332
 H  -24.67017  9.50704  -2.08793
 H  -25.64885  8.99457  -3.61991
 H  -27.80599  10.06254  -2.66631
 H  -26.84930  10.76986  -1.18993
 C  -23.08321  11.28731  -3.36347
 C  -21.93085  11.41827  -4.60175
 C  -20.36352  11.68687  -4.05063
 H  -20.39842  12.24555  -3.03829
 H  -19.78654  12.32265  -4.82641
 H  -19.83067  10.66801  -3.91252
 H  -21.93682  10.43704  -5.20535
 H  -22.23329  12.29510  -5.28394
 H  -22.69743  10.48517  -2.62874
 H  -23.12601  12.30643  -2.81980
 H  26.89901  -6.06310  0.83215
 H  28.63771  -7.48111  4.87587
 H  -26.44877  5.16511  -1.67236
 H  -27.83003  8.78828  0.84763
*
