# ================================================================
# Orca input file made by Matty Jones
# ================================================================
! ZINDO/S 
! NOPOP
! NOMOPRINT
* xyz 0   1
 C  24.80698  -3.49307  2.47213
 C  24.24614  -4.68055  2.94459
 C  24.78130  -5.12212  4.19474
 C  25.76970  -4.27906  4.71205
 S  25.92725  -3.04896  3.61093
 H  23.41806  -5.24715  2.39872
 C  24.26767  -6.49254  4.87884
 C  22.61412  -6.92186  4.94304
 C  22.12410  -7.87427  3.63247
 H  22.30865  -7.25849  2.67172
 H  22.82329  -8.79830  3.61325
 H  22.43249  -7.51793  5.90994
 H  21.98912  -5.95805  4.95064
 H  24.52561  -6.50359  6.01093
 H  24.80786  -7.38840  4.37801
 C  20.57945  -8.39379  3.65583
 C  19.73624  -8.04849  2.23383
 C  18.14505  -8.59330  2.23450
 H  18.07697  -9.58983  2.81833
 H  17.79818  -8.75870  1.14236
 H  17.47066  -7.79966  2.73908
 H  20.29003  -8.55835  1.36076
 H  19.73407  -6.90756  2.07789
 H  20.55527  -9.53939  3.81139
 H  20.01121  -7.88987  4.52800
 C  -24.76666  3.45045  -5.22811
 C  -23.88808  4.38789  -4.68297
 C  -24.51710  5.35658  -3.84024
 C  -25.89935  5.18319  -3.71932
 S  -26.26534  3.85909  -4.64839
 H  -22.76532  4.38991  -4.87659
 C  -23.72704  6.55744  -3.11478
 C  -22.71231  7.48651  -4.08570
 C  -22.05533  8.78548  -3.22765
 H  -22.92283  9.27434  -2.63317
 H  -21.68811  9.55315  -4.01478
 H  -21.86679  6.82355  -4.48717
 H  -23.33227  7.90465  -4.96206
 H  -24.38413  7.30361  -2.52824
 H  -23.02060  6.06746  -2.30603
 C  -20.83916  8.45180  -2.20489
 C  -19.31096  8.34722  -2.90482
 C  -18.91748  6.76445  -3.31755
 H  -17.89587  6.75603  -3.86043
 H  -19.72928  6.32573  -4.01324
 H  -18.84974  6.12902  -2.35199
 H  -19.28891  8.99304  -3.85788
 H  -18.53181  8.73839  -2.15236
 H  -21.05262  7.44916  -1.66728
 H  -20.78681  9.28756  -1.40246
 H  24.56728  -2.98271  1.57453
 H  26.30598  -4.40072  5.61825
 H  -24.52647  2.64671  -5.87611
 H  -26.57233  5.77430  -3.15251
*
