# ================================================================
# Orca input file made by Matty Jones
# ================================================================
! ZINDO/S 
! NOPOP
! NOMOPRINT
* xyz 0   1
 C  -15.55813  -12.79922  -0.92648
 C  -14.38413  -12.16369  -0.51937
 C  -13.82206  -12.69119  0.68482
 C  -14.55593  -13.74858  1.23134
 S  -15.84350  -13.97204  0.21024
 H  -13.91777  -11.28229  -1.07869
 C  -12.45276  -12.13720  1.35554
 C  -11.97024  -10.50726  1.69049
 C  -11.10031  -9.54298  0.57653
 H  -10.05043  -9.40059  1.05347
 H  -10.97821  -10.17470  -0.38282
 H  -12.93766  -9.93683  1.93899
 H  -11.30976  -10.57604  2.63379
 H  -12.35681  -12.62867  2.41025
 H  -11.56548  -12.54039  0.71233
 C  -11.65782  -8.06267  0.17677
 C  -11.06494  -7.41289  -1.28249
 C  -9.66370  -6.47763  -1.31754
 H  -8.74008  -7.17141  -1.37536
 H  -9.60649  -5.82231  -0.36708
 H  -9.69117  -5.79778  -2.25628
 H  -10.89205  -8.30438  -1.99513
 H  -11.91195  -6.75148  -1.70697
 H  -12.80904  -8.09709  0.09276
 H  -11.36851  -7.31318  1.01025
 C  10.31377  6.65520  -2.50140
 C  10.91144  7.35006  -1.44885
 C  10.07478  8.34780  -0.85826
 C  8.81008  8.44125  -1.44744
 S  8.79383  7.30053  -2.65115
 H  11.97574  7.16138  -1.09330
 C  10.49851  9.31348  0.36837
 C  11.82336  10.32659  0.08053
 C  12.23266  11.42400  1.30740
 H  11.26703  11.96755  1.63533
 H  12.64894  10.82435  2.20181
 H  12.74258  9.66247  -0.11509
 H  11.57819  10.94028  -0.86403
 H  9.61678  9.96846  0.74377
 H  10.82023  8.63835  1.27706
 C  13.33212  12.51544  0.79784
 C  14.93604  12.07147  1.06420
 C  15.54421  11.05059  -0.12526
 H  14.77658  10.94346  -0.98425
 H  15.74708  10.01038  0.34190
 H  16.53176  11.48704  -0.54114
 H  15.57338  13.03285  1.07256
 H  15.01557  11.55017  2.08738
 H  13.15608  13.51779  1.35084
 H  13.20014  12.70210  -0.33660
 H  -16.14382  -12.57862  -1.78199
 H  -14.33545  -14.29326  2.11355
 H  10.74139  5.87864  -3.08252
 H  8.02595  9.10269  -1.18057
*
