# ================================================================
# Orca input file made by Matty Jones
# ================================================================
! ZINDO/S 
! NOPOP
! NOMOPRINT
* xyz 0   1
 C  -21.60303  -4.89635  7.38940
 C  -20.42903  -4.26082  7.79651
 C  -19.86695  -4.78831  9.00071
 C  -20.60083  -5.84571  9.54722
 S  -21.88840  -6.06917  8.52612
 H  -19.96266  -3.37942  7.23720
 C  -18.49765  -4.23433  9.67142
 C  -18.01514  -2.60439  10.00637
 C  -17.14521  -1.64011  8.89242
 H  -16.09532  -1.49772  9.36935
 H  -17.02311  -2.27183  7.93306
 H  -18.98255  -2.03396  10.25488
 H  -17.35466  -2.67317  10.94967
 H  -18.40171  -4.72580  10.72613
 H  -17.61037  -4.63752  9.02821
 C  -17.70272  -0.15980  8.49266
 C  -17.10983  0.48998  7.03340
 C  -15.70860  1.42524  6.99834
 H  -14.78497  0.73146  6.94053
 H  -15.65138  2.08056  7.94880
 H  -15.73607  2.10509  6.05961
 H  -16.93695  -0.40151  6.32076
 H  -17.95685  1.15139  6.60891
 H  -18.85394  -0.19422  8.40864
 H  -17.41340  0.58970  9.32614
 C  16.23331  -2.34364  -8.50252
 C  17.07439  -1.24886  -8.29771
 C  16.44945  -0.14912  -7.63116
 C  15.10814  -0.37665  -7.30803
 S  14.77073  -1.90504  -7.85631
 H  18.16618  -1.19920  -8.62489
 C  17.45420  1.10583  -7.40730
 C  17.20833  2.67411  -7.99201
 C  18.58670  3.61435  -7.62002
 H  18.26557  4.72345  -7.66486
 H  18.90331  3.36078  -6.53994
 H  17.07281  2.63952  -9.13096
 H  16.28964  3.13759  -7.48630
 H  17.55646  1.24927  -6.24869
 H  18.52194  0.81396  -7.78799
 C  19.85721  3.38361  -8.62764
 C  20.08177  4.37814  -9.98049
 C  21.11529  5.68476  -9.73169
 H  20.58663  6.47040  -9.06822
 H  21.38529  6.15624  -10.75451
 H  22.08104  5.31881  -9.20973
 H  20.52535  3.73261  -10.82638
 H  19.05424  4.78550  -10.30342
 H  20.82890  3.47184  -7.99979
 H  19.79986  2.30199  -9.04133
 H  -22.18872  -4.67574  6.53389
 H  -20.38034  -6.39039  10.42944
 H  16.47796  -3.26188  -8.97218
 H  14.44570  0.28849  -6.81572
*
