# ================================================================
# Orca input file made by Matty Jones
# ================================================================
! ZINDO/S 
! NOPOP
! NOMOPRINT
* xyz 0   1
 C  22.35470  4.36789  8.29463
 C  21.79387  3.18041  8.76709
 C  22.32902  2.73884  10.01724
 C  23.31742  3.58190  10.53455
 S  23.47497  4.81200  9.43343
 H  20.96579  2.61381  8.22122
 C  21.81540  1.36842  10.70134
 C  20.16184  0.93910  10.76554
 C  19.67182  -0.01331  9.45497
 H  19.85638  0.60247  8.49422
 H  20.37102  -0.93734  9.43575
 H  19.98022  0.34303  11.73244
 H  19.53684  1.90291  10.77314
 H  22.07333  1.35737  11.83343
 H  22.35558  0.47256  10.20051
 C  18.12718  -0.53283  9.47833
 C  17.28396  -0.18753  8.05633
 C  15.69278  -0.73234  8.05700
 H  15.62469  -1.72887  8.64083
 H  15.34590  -0.89774  6.96486
 H  15.01838  0.06130  8.56158
 H  17.83775  -0.69739  7.18326
 H  17.28179  0.95340  7.90039
 H  18.10299  -1.67843  9.63389
 H  17.55894  -0.02891  10.35050
 C  -14.77365  -1.37206  -9.25508
 C  -15.90123  -1.92043  -9.86805
 C  -17.05187  -1.07221  -9.83961
 C  -16.83175  0.15212  -9.20096
 S  -15.24734  0.12116  -8.71196
 H  -16.35084  -2.96112  -9.39046
 C  -18.39985  -1.62318  -10.52729
 C  -19.97482  -1.24977  -10.13745
 C  -20.62458  -2.16841  -8.89218
 H  -20.29611  -3.26686  -9.05186
 H  -20.17229  -1.78789  -7.89832
 H  -20.02371  -0.14209  -9.83933
 H  -20.62065  -1.41475  -11.08375
 H  -18.37637  -2.80017  -10.49550
 H  -18.31499  -1.34394  -11.66578
 C  -22.24850  -2.09546  -8.83029
 C  -22.88574  -0.68489  -8.16545
 C  -23.23463  0.47667  -9.33462
 H  -22.26149  0.78853  -9.87561
 H  -23.70935  1.39958  -8.82300
 H  -23.97952  0.03155  -10.10082
 H  -23.85428  -0.94124  -7.59859
 H  -22.10836  -0.25182  -7.43923
 H  -22.67901  -2.21332  -9.89811
 H  -22.63288  -2.97861  -8.18449
 H  22.11500  4.87825  7.39703
 H  23.85371  3.46024  11.44075
 H  -13.81629  -1.81650  -9.15736
 H  -17.53114  0.93591  -9.05908
*
