# ================================================================
# Orca input file made by Matty Jones
# ================================================================
! ZINDO/S 
! NOPOP
! NOMOPRINT
* xyz 0   1
 C  -11.72087  -5.25664  -0.84235
 C  -12.54382  -6.13407  -0.13470
 C  -11.87571  -6.84819  0.90834
 C  -10.51835  -6.53305  1.02489
 S  -10.22047  -5.40334  -0.15216
 H  -13.66220  -6.25425  -0.32433
 C  -12.62085  -7.91112  1.86399
 C  -13.83632  -9.03011  1.44314
 C  -14.60170  -9.19987  -0.05679
 H  -14.68039  -8.17863  -0.57786
 H  -13.99790  -9.92876  -0.71413
 H  -13.37858  -10.07486  1.65730
 H  -14.67497  -8.84039  2.21782
 H  -13.05048  -7.32703  2.78506
 H  -11.81974  -8.65653  2.25736
 C  -16.09226  -9.79615  0.25862
 C  -17.19996  -9.97080  -0.99617
 C  -17.27131  -11.51488  -1.64896
 H  -18.27179  -11.63649  -2.21949
 H  -17.21738  -12.29716  -0.79789
 H  -16.38636  -11.66814  -2.37713
 H  -16.91610  -9.23313  -1.83555
 H  -18.24570  -9.70246  -0.58979
 H  -15.96538  -10.84146  0.74365
 H  -16.60279  -9.10040  1.03516
 C  18.00614  10.45216  -1.46203
 C  17.02204  9.85691  -0.67138
 C  16.38306  10.75457  0.23975
 C  16.86505  12.06527  0.16820
 S  18.03989  12.04479  -1.00216
 H  16.83309  8.73363  -0.63989
 C  15.20869  10.29498  1.24690
 C  13.71584  9.85301  0.58323
 C  13.41789  8.34481  -0.10624
 H  14.41444  8.09645  -0.63566
 H  12.62475  8.56312  -0.93396
 H  13.47683  10.64623  -0.22296
 H  12.94873  9.96384  1.44574
 H  14.98630  11.13987  2.01573
 H  15.57753  9.36994  1.85636
 C  12.91820  6.99322  0.64923
 C  12.62389  5.77259  -0.50058
 C  11.04469  5.64281  -1.06997
 H  10.85163  4.55164  -1.40608
 H  10.89972  6.35440  -1.97123
 H  10.30490  5.92618  -0.22800
 H  12.95809  4.76393  -0.06477
 H  13.23699  6.03264  -1.43703
 H  11.94679  7.18635  1.23819
 H  13.73623  6.61370  1.37002
 H  -11.99687  -4.62883  -1.65061
 H  -9.82497  -6.93258  1.72002
 H  18.60558  9.98464  -2.20075
 H  16.54625  12.89764  0.74189
*
