# ================================================================
# Orca input file made by Matty Jones
# ================================================================
! ZINDO/S 
! NOPOP
! NOMOPRINT
* xyz 0   1
 C  1.95245  -3.94072  -2.57101
 C  3.12928  -3.40051  -2.05030
 C  2.92494  -2.28012  -1.18588
 C  1.57996  -1.93388  -1.02320
 S  0.72638  -3.01697  -1.94448
 H  4.14590  -3.85935  -2.27915
 C  4.30110  -1.64081  -0.62685
 C  4.67712  0.01495  -0.65542
 C  4.14280  0.90584  0.67584
 H  3.05613  0.61965  0.91251
 H  4.20000  2.03461  0.43847
 H  5.82819  0.11093  -0.70431
 H  4.21287  0.46935  -1.60343
 H  4.34190  -1.90896  0.49162
 H  5.22749  -2.17236  -1.13330
 C  5.07839  0.55084  1.95482
 C  4.60808  1.29421  3.39012
 C  5.51828  2.65501  3.75527
 H  5.24624  3.01684  4.82068
 H  5.29594  3.49254  2.98893
 H  6.64257  2.37994  3.71766
 H  3.50504  1.61734  3.28615
 H  4.70473  0.53714  4.25147
 H  6.16898  0.86630  1.72911
 H  5.05975  -0.59237  2.13682
 C  1.07054  0.06373  -0.50034
 C  -0.05705  -0.48464  -1.11331
 C  -1.20768  0.36358  -1.08488
 C  -0.98756  1.58791  -0.44622
 S  0.59684  1.55695  0.04278
 H  -0.50666  -1.52533  -0.63572
 C  -2.55567  -0.18739  -1.77255
 C  -4.13063  0.18602  -1.38271
 C  -4.78040  -0.73262  -0.13744
 H  -4.45193  -1.83107  -0.29712
 H  -4.32810  -0.35210  0.85642
 H  -4.17953  1.29370  -1.08460
 H  -4.77647  0.02104  -2.32902
 H  -2.53218  -1.36438  -1.74077
 H  -2.47080  0.09185  -2.91104
 C  -6.40432  -0.65967  -0.07555
 C  -7.04155  0.75090  0.58928
 C  -7.39045  1.91246  -0.57988
 H  -6.41730  2.22432  -1.12088
 H  -7.86516  2.83537  -0.06826
 H  -8.13533  1.46734  -1.34609
 H  -8.01010  0.49455  1.15615
 H  -6.26417  1.18396  1.31551
 H  -6.83482  -0.77753  -1.14337
 H  -6.78869  -1.54282  0.57024
 H  1.86163  -4.76727  -3.22840
 H  -1.68695  2.37170  -0.30435
*
