# ================================================================
# Orca input file made by Matty Jones
# ================================================================
! ZINDO/S 
! NOPOP
! NOMOPRINT
* xyz 0   1
 C  -10.62335  28.74814  -0.90679
 C  -11.51263  27.72067  -0.58834
 C  -11.12273  26.94147  0.54527
 C  -9.91952  27.35575  1.12489
 S  -9.40858  28.64617  0.21705
 H  -12.47116  27.50468  -1.17176
 C  -12.08715  25.72044  1.00621
 C  -11.74071  24.34047  1.96170
 C  -11.07355  22.85655  1.48328
 H  -10.37523  23.06582  0.58581
 H  -10.43138  22.46882  2.36614
 H  -12.83753  24.01236  2.24663
 H  -11.27842  24.64946  2.95184
 H  -12.52542  25.24162  0.02790
 H  -12.98817  26.20593  1.57535
 C  -12.16438  21.71804  1.07030
 C  -12.85731  20.84837  2.34943
 C  -14.29919  21.51775  2.90819
 H  -14.06474  22.42226  3.58996
 H  -14.88300  20.71999  3.51026
 H  -14.93680  21.86376  2.00665
 H  -13.07486  19.77825  1.98329
 H  -12.10960  20.81541  3.22377
 H  -13.02395  22.20924  0.47343
 H  -11.64418  20.93808  0.38882
 C  9.74888  -28.33489  -2.97070
 C  10.51573  -27.40201  -2.27100
 C  9.74649  -26.41596  -1.57800
 C  8.36527  -26.57102  -1.73125
 S  8.17119  -27.90125  -2.70247
 H  11.65362  -27.44458  -2.20188
 C  10.43871  -25.25035  -0.69226
 C  11.82996  -24.42565  -1.18677
 C  12.32208  -23.20779  -0.10401
 H  12.01332  -23.53661  0.96097
 H  11.74757  -22.24292  -0.37686
 H  12.68435  -25.19299  -1.26939
 H  11.62973  -23.94274  -2.20961
 H  9.66347  -24.38807  -0.53925
 H  10.71967  -25.68625  0.34821
 C  13.92527  -22.92151  -0.13562
 C  14.50656  -22.24203  -1.56764
 C  14.51421  -20.56650  -1.66290
 H  15.33118  -20.14343  -0.96135
 H  13.47811  -20.15804  -1.35006
 H  14.74130  -20.25308  -2.75453
 H  15.59435  -22.60524  -1.70393
 H  13.86309  -22.64544  -2.43595
 H  14.49740  -23.91069  0.04463
 H  14.19139  -22.18621  0.71947
 H  -10.70695  29.44643  -1.69988
 H  -9.43535  26.93343  1.96800
 H  10.10088  -29.14897  -3.55120
 H  7.60206  -25.96518  -1.31403
*
