# ================================================================
# Orca input file made by Matty Jones
# ================================================================
! ZINDO/S 
! NOPOP
! NOMOPRINT
* xyz 0   1
 C  -17.28968  -10.21338  3.39490
 C  -16.32901  -9.38372  3.97512
 C  -15.77388  -9.89393  5.18994
 C  -16.29887  -11.13271  5.57089
 S  -17.40667  -11.52602  4.40107
 H  -16.02307  -8.38121  3.52823
 C  -14.66114  -9.03739  5.98700
 C  -13.27305  -8.49046  5.14356
 C  -13.26624  -7.06750  4.20323
 H  -12.40739  -7.22968  3.43582
 H  -14.26563  -7.05565  3.62284
 H  -12.97376  -9.34987  4.43583
 H  -12.44891  -8.34884  5.93977
 H  -15.15235  -8.08205  6.43111
 H  -14.24899  -9.67153  6.87631
 C  -13.04279  -5.59106  4.85750
 C  -12.99059  -4.32856  3.71822
 C  -11.45576  -3.81636  3.24992
 H  -10.81797  -3.61597  4.19457
 H  -11.55438  -2.83838  2.63760
 H  -10.95242  -4.63146  2.60311
 H  -13.53450  -4.69480  2.76855
 H  -13.55490  -3.42597  4.15796
 H  -13.91684  -5.35902  5.57837
 H  -12.05259  -5.56900  5.45107
 C  12.11581  3.93571  -2.69948
 C  12.21533  5.07056  -3.50577
 C  11.72012  6.26524  -2.89603
 C  11.22708  6.07276  -1.60174
 S  11.42699  4.45729  -1.28436
 H  12.40586  4.99110  -4.62963
 C  11.83048  7.61574  -3.77960
 C  13.39091  7.65324  -4.51963
 C  13.93249  8.84199  -5.59671
 H  14.12717  9.80017  -4.98265
 H  13.08145  9.04336  -6.35163
 H  14.13717  7.64814  -3.63778
 H  13.50716  6.67509  -5.11637
 H  11.03697  7.61887  -4.62192
 H  11.70683  8.56709  -3.13143
 C  15.29738  8.43642  -6.40751
 C  16.77464  9.19017  -6.06677
 C  17.79916  8.47721  -4.94176
 H  17.24002  8.34827  -3.93805
 H  18.72106  9.16217  -4.78759
 H  18.14814  7.44609  -5.33459
 H  17.35678  9.24791  -7.06426
 H  16.54212  10.26050  -5.70709
 H  15.10439  8.59470  -7.53992
 H  15.48932  7.30237  -6.23877
 H  -17.83048  -10.04072  2.49973
 H  -16.04246  -11.70134  6.42794
 H  12.41707  2.94851  -2.94091
 H  10.81238  6.80589  -0.95820
*
