# ================================================================
# Orca input file made by Matty Jones
# ================================================================
! ZINDO/S 
! NOPOP
! NOMOPRINT
* xyz 0   1
 C  -8.85586  -15.48843  -3.28092
 C  -7.89518  -14.65878  -2.70069
 C  -7.34006  -15.16899  -1.48587
 C  -7.86505  -16.40777  -1.10492
 S  -8.97285  -16.80108  -2.27475
 H  -7.58925  -13.65627  -3.14758
 C  -6.22732  -14.31245  -0.68881
 C  -4.83923  -13.76551  -1.53225
 C  -4.83242  -12.34256  -2.47258
 H  -3.97357  -12.50474  -3.24000
 H  -5.83181  -12.33071  -3.05297
 H  -4.53994  -14.62493  -2.23998
 H  -4.01509  -13.62390  -0.73604
 H  -6.71853  -13.35711  -0.24470
 H  -5.81517  -14.94659  0.20049
 C  -4.60896  -10.86612  -1.81832
 C  -4.55676  -9.60362  -2.95759
 C  -3.02194  -9.09142  -3.42589
 H  -2.38415  -8.89103  -2.48124
 H  -3.12056  -8.11343  -4.03821
 H  -2.51859  -9.90652  -4.07270
 H  -5.10068  -9.96986  -3.90726
 H  -5.12108  -8.70103  -2.51786
 H  -5.48302  -10.63408  -1.09745
 H  -3.61877  -10.84406  -1.22474
 C  9.95085  12.98018  0.88493
 C  8.63656  13.28002  1.24636
 C  8.46438  13.56756  2.63631
 C  9.64870  13.49439  3.37615
 S  10.82992  13.08357  2.28694
 H  7.77125  13.32805  0.50238
 C  7.12139  13.96009  3.47422
 C  5.58447  13.22992  3.79957
 C  4.01314  13.11754  3.13016
 H  3.26596  13.33412  3.98830
 H  3.91926  13.95631  2.34200
 H  5.88891  12.12083  3.94811
 H  5.34803  13.67657  4.85017
 H  7.48097  14.19975  4.56684
 H  6.76910  14.98565  3.02086
 C  3.65766  11.67736  2.46249
 C  3.27751  11.60261  0.82307
 C  1.62973  11.38962  0.54063
 H  1.04505  12.31502  0.91176
 H  1.26829  10.44688  1.10824
 H  1.45606  11.24383  -0.59417
 H  3.59909  12.59232  0.32748
 H  3.85250  10.72610  0.34811
 H  4.54945  10.95374  2.61947
 H  2.74508  11.23795  3.03285
 H  -9.39666  -15.31578  -4.17609
 H  -7.60864  -16.97640  -0.24788
 H  10.31108  12.73752  -0.08200
 H  9.76677  13.66565  4.41554
*
