# ================================================================
# Orca input file made by Matty Jones
# ================================================================
! ZINDO/S 
! NOPOP
! NOMOPRINT
* xyz 0   1
 C  13.56733  -16.13690  28.08844
 C  14.15901  -15.76967  29.29796
 C  13.37929  -14.85851  30.07647
 C  12.16578  -14.50447  29.47866
 S  12.12204  -15.32588  28.03859
 H  14.95504  -16.38529  29.81530
 C  14.06415  -14.42461  31.46426
 C  15.67143  -13.95552  31.14082
 C  16.72623  -13.64181  32.40673
 H  17.79093  -13.60953  31.94043
 H  16.68084  -14.56339  33.10926
 H  16.18526  -14.76833  30.50642
 H  15.59234  -12.98797  30.51139
 H  13.50609  -13.52219  31.93105
 H  14.06877  -15.30352  32.21703
 C  16.50747  -12.28317  33.25848
 C  15.66403  -12.60376  34.68992
 C  13.99195  -12.55953  34.54930
 H  13.68642  -11.77024  33.76039
 H  13.53579  -12.27896  35.57589
 H  13.60502  -13.60221  34.23035
 H  15.96547  -13.65057  35.06876
 H  15.98209  -11.81356  35.46705
 H  15.90584  -11.51186  32.64428
 H  17.52943  -11.82294  33.54101
 C  -10.42866  14.14296  -33.18900
 C  -11.74295  14.44280  -32.82757
 C  -11.91512  14.73034  -31.43762
 C  -10.73080  14.65718  -30.69778
 S  -9.54959  14.24635  -31.78699
 H  -12.60826  14.49083  -33.57155
 C  -13.25812  15.12287  -30.59971
 C  -14.79504  14.39270  -30.27436
 C  -16.36637  14.28032  -30.94377
 H  -17.11355  14.49690  -30.08563
 H  -16.46025  15.11909  -31.73193
 H  -14.49060  13.28361  -30.12582
 H  -15.03148  14.83935  -29.22377
 H  -12.89854  15.36253  -29.50709
 H  -13.61041  16.14844  -31.05307
 C  -16.72185  12.84014  -31.61144
 C  -17.10200  12.76539  -33.25086
 C  -18.74978  12.55240  -33.53330
 H  -19.33446  13.47780  -33.16217
 H  -19.11121  11.60966  -32.96569
 H  -18.92345  12.40661  -34.66810
 H  -16.78042  13.75510  -33.74645
 H  -16.52701  11.88888  -33.72582
 H  -15.83006  12.11653  -31.45446
 H  -17.63443  12.40073  -31.04108
 H  13.95928  -16.79544  27.35611
 H  11.42825  -13.84845  29.86503
 H  -10.06843  13.90030  -34.15593
 H  -10.61274  14.82843  -29.65839
*
