# ================================================================
# Orca input file made by Matty Jones
# ================================================================
! ZINDO/S 
! NOPOP
! NOMOPRINT
* xyz 0   1
 C  20.24387  9.30273  10.06982
 C  19.68304  8.11524  10.54228
 C  20.21819  7.67367  11.79243
 C  21.20659  8.51674  12.30974
 S  21.36414  9.74683  11.20861
 H  18.85496  7.54865  9.99640
 C  19.70457  6.30326  12.47653
 C  18.05101  5.87394  12.54073
 C  17.56099  4.92152  11.23016
 H  17.74555  5.53730  10.26941
 H  18.26019  3.99749  11.21093
 H  17.86938  5.27786  13.50762
 H  17.42601  6.83775  12.54833
 H  19.96250  6.29220  13.60861
 H  20.24475  5.40740  11.97569
 C  16.01635  4.40201  11.25352
 C  15.17313  4.74730  9.83152
 C  13.58195  4.20250  9.83219
 H  13.51386  3.20596  10.41602
 H  13.23507  4.03709  8.74005
 H  12.90755  4.99614  10.33676
 H  15.72692  4.23745  8.95844
 H  15.17096  5.88823  9.67558
 H  15.99216  3.25641  11.40907
 H  15.44810  4.90592  12.12568
 C  -16.59606  -2.23565  -13.00522
 C  -16.51363  -3.37169  -12.19868
 C  -16.38877  -3.08887  -10.80273
 C  -16.37252  -1.72260  -10.50548
 S  -16.51155  -0.94732  -11.96494
 H  -16.10098  -4.35523  -12.64726
 C  -16.31426  -4.42535  -9.90433
 C  -17.67555  -5.38003  -10.49935
 C  -18.46988  -6.89514  -10.34343
 H  -19.60292  -6.68081  -10.28279
 H  -18.11713  -7.38005  -9.35958
 H  -17.43014  -5.45844  -11.62367
 H  -18.54856  -4.63313  -10.34587
 H  -16.44168  -4.22545  -8.77989
 H  -15.33687  -5.01224  -10.11553
 C  -18.17645  -7.90221  -11.59872
 C  -19.26533  -9.19072  -11.71977
 C  -18.84021  -10.53720  -10.81699
 H  -19.49540  -11.43509  -11.14026
 H  -19.01530  -10.31264  -9.69483
 H  -17.72435  -10.78654  -10.99466
 H  -19.32435  -9.50399  -12.82842
 H  -20.30160  -8.82615  -11.37196
 H  -17.11161  -8.33911  -11.50814
 H  -18.25253  -7.31484  -12.59359
 H  20.00417  9.81308  9.17222
 H  21.74288  8.39507  13.21594
 H  -16.69238  -2.20329  -14.06034
 H  -16.28886  -1.27594  -9.54783
*
