# ================================================================
# Orca input file made by Matty Jones
# ================================================================
! ZINDO/S 
! NOPOP
! NOMOPRINT
* xyz 0   1
 C  -15.50138  -7.23507  2.70632
 C  -14.32739  -6.59954  3.11342
 C  -13.76531  -7.12704  4.31762
 C  -14.49918  -8.18443  4.86413
 S  -15.78675  -8.40790  3.84304
 H  -13.86102  -5.71814  2.55411
 C  -12.39601  -6.57306  4.98834
 C  -11.91349  -4.94311  5.32329
 C  -11.04356  -3.97884  4.20933
 H  -9.99368  -3.83644  4.68627
 H  -10.92146  -4.61055  3.24998
 H  -12.88091  -4.37268  5.57179
 H  -11.25301  -5.01190  6.26658
 H  -12.30006  -7.06453  6.04304
 H  -11.50873  -6.97624  4.34513
 C  -11.60107  -2.49853  3.80957
 C  -11.00819  -1.84874  2.35031
 C  -9.60695  -0.91348  2.31525
 H  -8.68333  -1.60727  2.25744
 H  -9.54974  -0.25816  3.26572
 H  -9.63442  -0.23364  1.37652
 H  -10.83530  -2.74023  1.63767
 H  -11.85520  -1.18733  1.92582
 H  -12.75229  -2.53294  3.72556
 H  -11.31176  -1.74903  4.64305
 C  16.26267  4.30804  -6.26432
 C  15.36986  3.32226  -5.84123
 C  14.31128  3.80984  -5.01302
 C  14.36849  5.18759  -4.78096
 S  15.70699  5.72246  -5.60117
 H  15.58081  2.22523  -5.48739
 C  13.23018  2.72551  -4.49800
 C  11.59986  2.93753  -4.06919
 C  10.83670  4.40769  -3.75238
 H  11.40849  5.27342  -4.24738
 H  9.75651  4.37395  -4.15424
 H  10.99833  2.48734  -4.95528
 H  11.43106  2.25398  -3.15063
 H  13.68914  2.21745  -3.54602
 H  13.16765  1.88748  -5.31855
 C  10.84819  4.52578  -2.12726
 C  10.13661  5.86861  -1.43864
 C  9.37505  6.94473  -2.47769
 H  8.83330  6.35284  -3.31286
 H  10.16843  7.64216  -2.95156
 H  8.59399  7.58310  -1.91581
 H  9.42828  5.48364  -0.62680
 H  11.01052  6.38505  -0.92949
 H  10.28606  3.60561  -1.69076
 H  11.94449  4.47303  -1.75401
 H  -16.08707  -7.01447  1.85080
 H  -14.27870  -8.72911  5.74635
 H  17.11606  4.17958  -6.87981
 H  13.69695  5.76850  -4.20202
*
