# ================================================================
# Orca input file made by Matty Jones
# ================================================================
! ZINDO/S 
! NOPOP
! NOMOPRINT
* xyz 0   1
 C  2.68267  -3.13867  -1.69755
 C  1.60516  -3.93936  -1.31576
 C  0.55371  -3.22831  -0.65764
 C  0.80222  -1.85923  -0.51907
 S  2.28888  -1.60414  -1.20841
 H  1.56424  -5.05972  -1.53570
 C  -0.66408  -4.22288  -0.24528
 C  -2.31328  -4.04828  -0.58994
 C  -3.40727  -3.32305  0.45442
 H  -2.85986  -2.49678  1.04495
 H  -4.25335  -2.84747  -0.17138
 H  -2.35747  -3.44137  -1.57754
 H  -2.71061  -5.11183  -0.80581
 H  -0.64500  -4.29990  0.93199
 H  -0.41998  -5.29738  -0.63842
 C  -4.03415  -4.42162  1.49243
 C  -5.36001  -5.35234  0.98694
 C  -5.01141  -6.89369  0.40023
 H  -6.00030  -7.48670  0.28793
 H  -4.31962  -7.44064  1.14956
 H  -4.48919  -6.81165  -0.62747
 H  -5.89844  -4.77290  0.14869
 H  -6.06892  -5.47142  1.88806
 H  -3.20001  -5.16989  1.78728
 H  -4.37383  -3.86331  2.44865
 C  0.23237  -0.50676  0.27747
 C  0.99790  0.66018  0.28835
 C  0.41264  1.73553  1.02683
 C  -0.82125  1.41610  1.60199
 S  -1.11898  -0.15787  1.17259
 H  2.02362  0.76503  -0.20070
 C  1.33903  3.07329  0.99295
 C  0.91962  4.69141  0.71137
 C  2.36142  5.61901  0.63131
 H  2.10228  6.69775  0.94659
 H  3.12381  5.17668  1.37438
 H  0.35903  4.77214  -0.28673
 H  0.27828  5.08131  1.57587
 H  1.87559  3.11387  2.03113
 H  2.19088  2.89941  0.19855
 C  2.99648  5.62237  -0.87771
 C  4.48082  6.39598  -1.14804
 C  4.39023  8.01014  -1.61202
 H  3.40823  8.19388  -2.19539
 H  5.29432  8.26342  -2.29006
 H  4.41436  8.68096  -0.66945
 H  5.09966  6.33176  -0.17877
 H  5.02470  5.82106  -1.98824
 H  3.14416  4.52414  -1.21612
 H  2.23163  6.12059  -1.59150
 H  3.56643  -3.44664  -2.19528
 H  -1.43732  2.04774  2.18944
*
