# ================================================================
# Orca input file made by Matty Jones
# ================================================================
! ZINDO/S 
! NOPOP
! NOMOPRINT
* xyz 0   1
 C  7.71670  -1.95623  -2.17927
 C  6.61543  -2.47555  -2.86147
 C  5.46801  -1.62255  -2.85303
 C  5.66423  -0.42362  -2.16066
 S  7.22511  -0.48123  -1.60321
 H  6.77868  -2.73635  -4.03182
 C  4.15187  -2.14861  -3.62978
 C  2.55336  -1.77231  -3.24586
 C  1.82174  -2.70417  -2.04792
 H  2.18055  -3.79599  -2.16751
 H  2.18651  -2.30201  -1.02569
 H  2.50181  -0.66749  -2.93295
 H  1.93507  -1.91714  -4.21341
 H  4.17194  -3.32073  -3.62028
 H  4.26141  -1.83442  -4.75765
 C  0.19426  -2.65468  -2.10633
 C  -0.54082  -1.24069  -1.55362
 C  -0.82708  -0.13833  -2.79749
 H  -0.04464  0.71185  -2.74092
 H  -1.89056  0.30214  -2.67492
 H  -0.74792  -0.66901  -3.82261
 H  -1.54870  -1.51403  -1.06864
 H  0.14462  -0.74307  -0.77422
 H  -0.15436  -2.83688  -3.19445
 H  -0.21917  -3.51674  -1.44868
 C  2.01319  2.81295  0.91064
 C  0.93568  2.01226  1.29243
 C  -0.11577  2.72332  1.95055
 C  0.13273  4.09239  2.08913
 S  1.61940  4.34748  1.39979
 H  0.89476  0.89190  1.07249
 C  -1.33357  1.72874  2.36291
 C  -2.98277  1.90334  2.01825
 C  -4.07676  2.62857  3.06261
 H  -3.52935  3.45484  3.65314
 H  -4.92284  3.10416  2.43681
 H  -3.02696  2.51025  1.03065
 H  -3.38010  0.83980  1.80239
 H  -1.31449  1.65173  3.54018
 H  -1.08947  0.65425  1.96977
 C  -4.70364  1.53000  4.10062
 C  -6.02950  0.59929  3.59513
 C  -5.68090  -0.94207  3.00842
 H  -6.66978  -1.53507  2.89612
 H  -4.98911  -1.48901  3.75776
 H  -5.15868  -0.86002  1.98072
 H  -6.56793  1.17872  2.75689
 H  -6.73841  0.48020  4.49625
 H  -3.86949  0.78173  4.39547
 H  -5.04331  2.08831  5.05684
 H  8.66699  -2.40925  -2.05551
 H  4.96229  0.35834  -2.02128
 H  2.89694  2.50498  0.41292
 H  -0.49720  4.81573  2.54031
*
