# ================================================================
# Orca input file made by Matty Jones
# ================================================================
! ZINDO/S 
! NOPOP
! NOMOPRINT
* xyz 0   1
 C  35.87427  29.52956  3.49198
 C  35.10637  28.56321  4.14343
 C  35.87172  27.62145  4.89947
 C  37.25093  27.84529  4.84473
 S  37.44808  29.17789  3.87740
 H  33.96623  28.52005  4.09678
 C  35.26909  26.37132  5.75667
 C  33.97585  26.41758  6.88173
 C  33.64322  24.92664  7.67738
 H  33.46195  25.22421  8.78486
 H  34.64601  24.34636  7.62211
 H  33.02506  26.72272  6.31228
 H  34.22916  27.19644  7.68457
 H  36.15247  25.91249  6.38532
 H  34.94106  25.56074  4.99952
 C  32.45894  23.87949  7.26724
 C  32.44160  22.39261  8.10460
 C  33.80150  22.02285  9.02830
 H  34.73670  22.03486  8.34642
 H  33.67620  20.96646  9.48553
 H  33.92259  22.79999  9.87507
 H  32.29826  21.55220  7.33009
 H  31.53732  22.41070  8.82104
 H  32.54418  23.62877  6.14304
 H  31.43256  24.37777  7.46123
 C  -29.52408  -25.76273  -6.27868
 C  -30.65226  -26.47966  -5.87730
 C  -31.73104  -25.66147  -5.41789
 C  -31.45330  -24.29156  -5.45670
 S  -29.90931  -24.16649  -6.04906
 H  -31.13417  -27.49229  -6.25459
 C  -33.18556  -26.14427  -4.90476
 C  -34.20877  -26.73179  -6.12202
 C  -34.97344  -25.38681  -6.86474
 H  -34.22523  -24.50652  -6.74233
 H  -35.00832  -25.65667  -7.99296
 H  -33.60157  -27.30285  -6.90735
 H  -35.01611  -27.40132  -5.65801
 H  -33.76105  -25.35381  -4.30010
 H  -33.03089  -27.05390  -4.17975
 C  -36.44486  -24.81993  -6.44747
 C  -37.68418  -25.42710  -7.42948
 C  -37.90029  -24.55259  -8.85556
 H  -38.11914  -23.44561  -8.60312
 H  -38.78851  -25.00237  -9.44552
 H  -36.93706  -24.62398  -9.49329
 H  -38.66872  -25.38642  -6.83313
 H  -37.43778  -26.51787  -7.70038
 H  -36.68286  -25.11462  -5.35591
 H  -36.46081  -23.66691  -6.53260
 H  35.52499  30.32136  2.87989
 H  38.01124  27.28132  5.32166
 H  -28.61306  -26.15582  -6.65168
 H  -32.09520  -23.49897  -5.16796
*
