# ================================================================
# Orca input file made by Matty Jones
# ================================================================
! ZINDO/S 
! NOPOP
! NOMOPRINT
* xyz 0   1
 C  -16.90688  -4.87641  11.29255
 C  -17.67479  -5.84276  11.94399
 C  -16.90944  -6.78452  12.70003
 C  -15.53023  -6.56068  12.64529
 S  -15.33307  -5.22808  11.67796
 H  -18.81492  -5.88592  11.89735
 C  -17.51206  -8.03465  13.55723
 C  -18.80531  -7.98839  14.68229
 C  -19.13794  -9.47933  15.47794
 H  -19.31921  -9.18176  16.58542
 H  -18.13515  -10.05961  15.42267
 H  -19.75610  -7.68325  14.11285
 H  -18.55200  -7.20953  15.48513
 H  -16.62869  -8.49348  14.18588
 H  -17.84010  -8.84523  12.80008
 C  -20.32222  -10.52648  15.06780
 C  -20.33956  -12.01336  15.90517
 C  -18.97966  -12.38312  16.82886
 H  -18.04445  -12.37111  16.14698
 H  -19.10496  -13.43951  17.28609
 H  -18.85857  -11.60598  17.67563
 H  -20.48290  -12.85377  15.13065
 H  -21.24384  -11.99527  16.62160
 H  -20.23698  -10.77720  13.94360
 H  -21.34860  -10.02820  15.26180
 C  16.60476  4.22400  -14.11881
 C  17.37029  5.39094  -14.10793
 C  16.78503  6.46629  -13.36945
 C  15.55114  6.14687  -12.79430
 S  15.25341  4.57289  -13.22369
 H  18.39601  5.49580  -14.59699
 C  17.71142  7.80405  -13.40333
 C  17.29201  9.42218  -13.68492
 C  18.73381  10.34978  -13.76497
 H  18.47467  11.42852  -13.44970
 H  19.49620  9.90745  -13.02190
 H  16.73142  9.50291  -14.68301
 H  16.65067  9.81208  -12.82042
 H  18.24798  7.84464  -12.36516
 H  18.56327  7.63017  -14.19773
 C  19.36888  10.35313  -15.27399
 C  20.85321  11.12674  -15.54432
 C  20.76262  12.74090  -16.00830
 H  19.78062  12.92464  -16.59167
 H  21.66671  12.99419  -16.68635
 H  20.78675  13.41173  -15.06574
 H  21.47205  11.06253  -14.57505
 H  21.39709  10.55183  -16.38452
 H  19.51655  9.25490  -15.61240
 H  18.60402  10.85135  -15.98778
 H  -17.25617  -4.08461  10.68045
 H  -14.76992  -7.12465  13.12222
 H  16.83807  3.30786  -14.59823
 H  14.93507  6.77850  -12.20684
*
