# ================================================================
# Orca input file made by Matty Jones
# ================================================================
! ZINDO/S 
! NOPOP
! NOMOPRINT
* xyz 0   1
 C  1.46699  -3.44790  -6.14226
 C  1.54942  -4.58395  -5.33572
 C  1.67428  -4.30112  -3.93977
 C  1.69052  -2.93485  -3.64252
 S  1.55150  -2.15957  -5.10199
 H  1.96207  -5.56748  -5.78430
 C  1.74879  -5.63760  -3.04137
 C  0.38750  -6.59228  -3.63639
 C  -0.40683  -8.10739  -3.48047
 H  -1.53987  -7.89306  -3.41983
 H  -0.05408  -8.59231  -2.49662
 H  0.63291  -6.67069  -4.76071
 H  -0.48552  -5.84538  -3.48291
 H  1.62137  -5.43770  -1.91693
 H  2.72618  -6.22449  -3.25258
 C  -0.11340  -9.11446  -4.73576
 C  -1.20229  -10.40297  -4.85682
 C  -0.77716  -11.74945  -3.95403
 H  -1.43235  -12.64734  -4.27730
 H  -0.95225  -11.52489  -2.83187
 H  0.33870  -11.99880  -4.13170
 H  -1.26130  -10.71624  -5.96546
 H  -2.23856  -10.03840  -4.50900
 H  0.95144  -9.55137  -4.64518
 H  -0.18948  -8.52709  -5.73064
 C  -1.77671  4.89096  0.38738
 C  -1.16886  5.32950  1.56471
 C  -1.98742  6.19262  2.35797
 C  -3.24799  6.43686  1.80422
 S  -3.28293  5.58404  0.38228
 H  -0.24639  4.83257  2.04437
 C  -1.30847  6.77406  3.69163
 C  0.23502  7.34872  3.35105
 C  1.28390  7.94250  4.52230
 H  1.17386  9.09605  4.54081
 H  2.36304  7.69076  4.18214
 H  0.82150  6.49272  2.84274
 H  0.07641  8.20165  2.58602
 H  -1.96732  7.61653  4.15154
 H  -1.24869  5.91925  4.48008
 C  1.03991  7.34883  6.01127
 C  -0.11072  8.22608  6.87025
 C  0.56566  9.57418  7.61068
 H  1.32856  9.23362  8.41036
 H  -0.27309  10.19701  8.10870
 H  1.10203  10.21617  6.81097
 H  -0.94129  8.56931  6.15107
 H  -0.55728  7.54269  7.68312
 H  2.03482  7.37284  6.60321
 H  0.68140  6.25034  5.94528
 H  1.37067  -3.41554  -7.19738
 H  1.77418  -2.48819  -2.68487
 H  -1.36271  4.24997  -0.34838
 H  -4.01966  7.04067  2.20861
*
