# ================================================================
# Orca input file made by Matty Jones
# ================================================================
! ZINDO/S 
! NOPOP
! NOMOPRINT
* xyz 0   1
 C  -6.11306  29.97538  -1.96810
 C  -7.00233  28.94791  -1.64966
 C  -6.61243  28.16871  -0.51604
 C  -5.40922  28.58298  0.06358
 S  -4.89828  29.87340  -0.84426
 H  -7.96086  28.73191  -2.23307
 C  -7.57685  26.94768  -0.05511
 C  -7.23041  25.56770  0.90039
 C  -6.56325  24.08379  0.42197
 H  -5.86493  24.29305  -0.47551
 H  -5.92108  23.69606  1.30483
 H  -8.32723  25.23959  1.18532
 H  -6.76812  25.87670  1.89052
 H  -8.01512  26.46885  -1.03342
 H  -8.47787  27.43316  0.51403
 C  -7.65408  22.94527  0.00898
 C  -8.34702  22.07561  1.28811
 C  -9.78889  22.74498  1.84687
 H  -9.55444  23.64950  2.52865
 H  -10.37270  21.94723  2.44894
 H  -10.42650  23.09100  0.94534
 H  -8.56456  21.00549  0.92198
 H  -7.59930  22.04265  2.16246
 H  -8.51365  23.43648  -0.58789
 H  -7.13388  22.16531  -0.67249
 C  11.83243  -24.98875  -1.57641
 C  10.48906  -24.79651  -1.25039
 C  10.26193  -24.47648  0.12448
 C  11.43187  -24.41572  0.88795
 S  12.66834  -24.75635  -0.16349
 H  9.63928  -24.88502  -2.00773
 C  8.90055  -24.16631  0.97642
 C  7.39009  -24.92925  1.37406
 C  5.79939  -25.03139  0.77299
 H  5.12207  -24.73167  1.67264
 H  5.72143  -24.18251  -0.01453
 H  7.70964  -26.04411  1.43498
 H  7.21719  -24.54448  2.45727
 H  8.47593  -23.17340  0.48588
 H  9.26038  -23.85980  2.05109
 C  5.14642  -26.37385  0.12883
 C  5.15150  -26.44974  -1.54888
 C  3.94124  -27.47232  -2.11954
 H  3.96283  -28.46969  -1.53522
 H  4.10609  -27.66985  -3.24692
 H  2.91528  -26.95562  -1.96505
 H  4.98466  -25.39574  -1.97888
 H  6.17118  -26.85820  -1.89563
 H  5.72685  -27.29995  0.51700
 H  4.04673  -26.46837  0.48183
 H  -6.19665  30.67367  -2.76119
 H  -4.92506  28.16066  0.90669
 H  12.23369  -25.23203  -2.52688
 H  11.51171  -24.19760  1.92219
*
