# ================================================================
# Orca input file made by Matty Jones
# ================================================================
! ZINDO/S 
! NOPOP
! NOMOPRINT
* xyz 0   1
 C  -19.74428  -6.99993  4.24495
 C  -18.57028  -6.36440  4.65205
 C  -18.00820  -6.89190  5.85625
 C  -18.74208  -7.94929  6.40276
 S  -20.02965  -8.17276  5.38167
 H  -18.10391  -5.48301  4.09274
 C  -16.63890  -6.33792  6.52697
 C  -16.15638  -4.70797  6.86192
 C  -15.28646  -3.74370  5.74796
 H  -14.23657  -3.60130  6.22490
 H  -15.16436  -4.37541  4.78861
 H  -17.12380  -4.13754  7.11042
 H  -15.49591  -4.77676  7.80521
 H  -16.54296  -6.82939  7.58167
 H  -15.75162  -6.74110  5.88376
 C  -15.84397  -2.26339  5.34820
 C  -15.25108  -1.61360  3.88894
 C  -13.84985  -0.67834  3.85388
 H  -12.92622  -1.37213  3.79607
 H  -13.79263  -0.02303  4.80435
 H  -13.87732  0.00150  2.91515
 H  -15.07819  -2.50509  3.17630
 H  -16.09810  -0.95219  3.46445
 H  -16.99519  -2.29780  5.26419
 H  -15.55465  -1.51389  6.18168
 C  13.89359  0.98960  -6.98413
 C  14.77217  1.92704  -6.43900
 C  14.14315  2.89573  -5.59627
 C  12.76090  2.72233  -5.47535
 S  12.39491  1.39823  -6.40442
 H  15.89493  1.92906  -6.63262
 C  14.93321  4.09658  -4.87081
 C  15.94795  5.02566  -5.84173
 C  16.60492  6.32462  -4.98368
 H  15.73743  6.81349  -4.38920
 H  16.97215  7.09230  -5.77081
 H  16.79346  4.36270  -6.24319
 H  15.32798  5.44380  -6.71808
 H  14.27612  4.84276  -4.28427
 H  15.63965  3.60661  -4.06206
 C  17.82109  5.99095  -3.96092
 C  19.34930  5.88636  -4.66085
 C  19.74277  4.30360  -5.07358
 H  20.76439  4.29518  -5.61646
 H  18.93097  3.86487  -5.76927
 H  19.81051  3.66816  -4.10802
 H  19.37135  6.53219  -5.61390
 H  20.12845  6.27753  -3.90839
 H  17.60763  4.98830  -3.42331
 H  17.87344  6.82671  -3.15848
 H  -20.32997  -6.77933  3.38943
 H  -18.52159  -8.49398  7.28498
 H  14.13378  0.18585  -7.63214
 H  12.08792  3.31345  -4.90854
*
