# ================================================================
# Orca input file made by Matty Jones
# ================================================================
! ZINDO/S 
! NOPOP
! NOMOPRINT
* xyz 0   1
 C  -13.60169  -9.29235  -2.69930
 C  -14.16253  -10.47984  -2.22684
 C  -13.62737  -10.92141  -0.97669
 C  -12.63897  -10.07834  -0.45938
 S  -12.48142  -8.84825  -1.56050
 H  -14.99061  -11.04643  -2.77271
 C  -14.14100  -12.29182  -0.29258
 C  -15.79455  -12.72114  -0.22839
 C  -16.28457  -13.67356  -1.53896
 H  -16.10002  -13.05778  -2.49971
 H  -15.58538  -14.59759  -1.55818
 H  -15.97618  -13.31722  0.73851
 H  -16.41955  -11.75733  -0.22078
 H  -13.88306  -12.30288  0.83950
 H  -13.60081  -13.18768  -0.79342
 C  -17.82922  -14.19307  -1.51560
 C  -18.67243  -13.84778  -2.93760
 C  -20.26361  -14.39258  -2.93693
 H  -20.33170  -15.38912  -2.35310
 H  -20.61049  -14.55798  -4.02907
 H  -20.93801  -13.59894  -2.43235
 H  -18.11864  -14.35763  -3.81067
 H  -18.67460  -12.70685  -3.09354
 H  -17.85340  -15.33867  -1.36004
 H  -18.39746  -13.68916  -0.64343
 C  14.24833  9.11605  -0.74537
 C  14.84600  9.81092  0.30717
 C  14.00934  10.80865  0.89777
 C  12.74464  10.90210  0.30859
 S  12.72839  9.76138  -0.89512
 H  15.91030  9.62223  0.66273
 C  14.43307  11.77433  2.12440
 C  15.75792  12.78744  1.83655
 C  16.16722  13.88485  3.06343
 H  15.20159  14.42840  3.39135
 H  16.58350  13.28520  3.95784
 H  16.67714  12.12332  1.64094
 H  15.51275  13.40114  0.89200
 H  13.55134  12.42931  2.49979
 H  14.75480  11.09921  3.03309
 C  17.26668  14.97630  2.55386
 C  18.87060  14.53232  2.82022
 C  19.47877  13.51145  1.63077
 H  18.71114  13.40432  0.77177
 H  19.68164  12.47123  2.09792
 H  20.46632  13.94790  1.21489
 H  19.50794  15.49370  2.82859
 H  18.95013  14.01103  3.84340
 H  17.09065  15.97864  3.10686
 H  17.13470  15.16295  1.41943
 H  -13.84139  -8.78200  -3.59690
 H  -12.10269  -10.20001  0.44682
 H  14.67595  8.33950  -1.32650
 H  11.96051  11.56354  0.57546
*
