# ================================================================
# Orca input file made by Matty Jones
# ================================================================
! ZINDO/S 
! NOPOP
! NOMOPRINT
* xyz 0   1
 C  -12.85048  -9.84078  7.28444
 C  -13.61838  -10.80714  7.93589
 C  -12.85303  -11.74889  8.69192
 C  -11.47383  -11.52505  8.63719
 S  -11.27667  -10.19245  7.66986
 H  -14.75852  -10.85030  7.88924
 C  -13.45566  -12.99903  9.54912
 C  -14.74890  -12.95277  10.67419
 C  -15.08154  -14.44370  11.46984
 H  -15.26280  -14.14614  12.57732
 H  -14.07875  -15.02399  11.41457
 H  -15.69969  -12.64762  10.10474
 H  -14.49559  -12.17390  11.47703
 H  -12.57228  -13.45786  10.17778
 H  -13.78369  -13.80961  8.79198
 C  -16.26581  -15.49086  11.05970
 C  -16.28316  -16.97774  11.89706
 C  -14.92326  -17.34749  12.82076
 H  -13.98805  -17.33549  12.13888
 H  -15.04856  -18.40389  13.27799
 H  -14.80217  -16.57035  13.66753
 H  -16.42650  -17.81814  11.12255
 H  -17.18744  -16.95965  12.61350
 H  -16.18057  -15.74157  9.93550
 H  -17.29220  -14.99257  11.25369
 C  12.44013  10.41417  -8.61202
 C  12.53965  11.54902  -9.41831
 C  12.04444  12.74370  -8.80857
 C  11.55139  12.55122  -7.51428
 S  11.75131  10.93575  -7.19690
 H  12.73018  11.46956  -10.54217
 C  12.15479  14.09421  -9.69214
 C  13.71522  14.13170  -10.43217
 C  14.25681  15.32045  -11.50925
 H  14.45149  16.27863  -10.89519
 H  13.40576  15.52183  -12.26417
 H  14.46149  14.12660  -9.55032
 H  13.83148  13.15355  -11.02891
 H  11.36128  14.09733  -10.53446
 H  12.03114  15.04555  -9.04397
 C  15.62170  14.91488  -12.32005
 C  17.09896  15.66863  -11.97931
 C  18.12348  14.95567  -10.85430
 H  17.56433  14.82673  -9.85059
 H  19.04538  15.64063  -10.70013
 H  18.47245  13.92455  -11.24713
 H  17.68110  15.72637  -12.97680
 H  16.86644  16.73896  -11.61963
 H  15.42871  15.07316  -13.45246
 H  15.81364  13.78083  -12.15131
 H  -13.19976  -9.04899  6.67235
 H  -10.71352  -12.08903  9.11412
 H  12.74139  9.42697  -8.85345
 H  11.13670  13.28435  -6.87074
*
