# ================================================================
# Orca input file made by Matty Jones
# ================================================================
! ZINDO/S 
! NOPOP
! NOMOPRINT
* xyz 0   1
 C  11.66356  -10.63396  29.61421
 C  11.74599  -11.77001  30.42075
 C  11.87085  -11.48718  31.81670
 C  11.88710  -10.12091  32.11395
 S  11.74807  -9.34563  30.65449
 H  12.15864  -12.75354  29.97217
 C  11.94536  -12.82366  32.71510
 C  10.58407  -13.77834  32.12008
 C  9.78974  -15.29345  32.27600
 H  8.65670  -15.07912  32.33664
 H  10.14249  -15.77837  33.25985
 H  10.82948  -13.85675  30.99576
 H  9.71106  -13.03144  32.27356
 H  11.81794  -12.62376  33.83954
 H  12.92275  -13.41055  32.50389
 C  10.08317  -16.30052  31.02071
 C  8.99429  -17.58903  30.89965
 C  9.41941  -18.93551  31.80244
 H  8.76422  -19.83341  31.47917
 H  9.24432  -18.71096  32.92460
 H  10.53527  -19.18486  31.62477
 H  8.93527  -17.90230  29.79101
 H  7.95802  -17.22446  31.24747
 H  11.14801  -16.73743  31.11129
 H  10.00709  -15.71315  30.02583
 C  -7.00839  16.47733  -33.03243
 C  -7.88078  15.85817  -32.13606
 C  -8.58256  16.76591  -31.28297
 C  -8.26269  18.10863  -31.50684
 S  -7.14416  18.10213  -32.73127
 H  -7.49329  14.89819  -31.59175
 C  -9.64222  16.19828  -30.19653
 C  -10.78711  15.18639  -30.99441
 C  -12.13089  14.22654  -30.54523
 H  -12.42010  14.54409  -29.47156
 H  -12.99667  14.50079  -31.26066
 H  -10.08330  14.41166  -31.45302
 H  -11.21906  15.88329  -31.81078
 H  -10.23174  17.05918  -29.69177
 H  -9.10700  15.56918  -29.38218
 C  -11.90633  12.60823  -30.57763
 C  -12.09549  11.88852  -32.11289
 C  -13.59028  11.29912  -32.61045
 H  -13.44503  10.25855  -33.09803
 H  -14.04428  12.02534  -33.39012
 H  -14.29793  11.20882  -31.70171
 H  -11.35318  11.00706  -32.16362
 H  -11.81481  12.68878  -32.89352
 H  -12.67604  12.10281  -29.87889
 H  -10.84466  12.35564  -30.20231
 H  11.56724  -10.60160  28.55909
 H  11.97075  -9.67425  33.07160
 H  -6.38951  16.00783  -33.75365
 H  -8.65335  18.95371  -31.00004
*
