# ================================================================
# Orca input file made by Matty Jones
# ================================================================
! ZINDO/S 
! NOPOP
! NOMOPRINT
* xyz 0   1
 C  6.97255  -13.70412  30.21308
 C  7.58039  -13.26558  31.39041
 C  6.76183  -12.40246  32.18367
 C  5.50127  -12.15822  31.62991
 S  5.46632  -13.01104  30.20798
 H  8.50286  -13.76251  31.87007
 C  7.44078  -11.82102  33.51733
 C  8.98427  -11.24636  33.17675
 C  10.03315  -10.65258  34.34800
 H  9.92311  -9.49903  34.36651
 H  11.11229  -10.90432  34.00784
 H  9.57075  -12.10236  32.66844
 H  8.82566  -10.39343  32.41172
 H  6.78194  -10.97855  33.97724
 H  7.50056  -12.67583  34.30578
 C  9.78916  -11.24625  35.83697
 C  8.63854  -10.36899  36.69595
 C  9.31492  -9.02090  37.43638
 H  10.07782  -9.36146  38.23606
 H  8.47616  -8.39807  37.93440
 H  9.85128  -8.37891  36.63667
 H  7.80797  -10.02577  35.97677
 H  8.19197  -11.05239  37.50882
 H  10.78408  -11.22224  36.42891
 H  9.43065  -12.34474  35.77098
 C  -10.28344  7.90380  -36.47723
 C  -9.68577  8.59866  -35.42468
 C  -10.52243  9.59640  -34.83409
 C  -11.78712  9.68985  -35.42326
 S  -11.80338  8.54913  -36.62698
 H  -8.62147  8.40998  -35.06913
 C  -10.09870  10.56208  -33.60746
 C  -8.77385  11.57519  -33.89530
 C  -8.36455  12.67260  -32.66842
 H  -9.33018  13.21615  -32.34050
 H  -7.94827  12.07295  -31.77402
 H  -7.85462  10.91107  -34.09091
 H  -9.01901  12.18889  -34.83986
 H  -10.98043  11.21706  -33.23206
 H  -9.77697  9.88696  -32.69877
 C  -7.26509  13.76405  -33.17799
 C  -5.66117  13.32007  -32.91163
 C  -5.05300  12.29920  -34.10109
 H  -5.82063  12.19207  -34.96008
 H  -4.85013  11.25898  -33.63393
 H  -4.06545  12.73565  -34.51697
 H  -5.02383  14.28145  -32.90327
 H  -5.58164  12.79877  -31.88845
 H  -7.44112  14.76639  -32.62499
 H  -7.39706  13.95070  -34.31243
 H  7.38654  -14.34511  29.47732
 H  4.72959  -11.55441  32.03431
 H  -9.85582  7.12725  -37.05835
 H  -12.57126  10.35129  -35.15640
*
