# ================================================================
# Orca input file made by Matty Jones
# ================================================================
! ZINDO/S 
! NOPOP
! NOMOPRINT
* xyz 0   1
 C  7.77524  -1.95243  -2.33400
 C  6.64766  -2.50080  -2.94697
 C  5.49702  -1.65257  -2.91854
 C  5.71714  -0.42824  -2.27988
 S  7.30154  -0.45920  -1.79088
 H  6.19805  -3.54148  -2.46939
 C  4.14904  -2.20354  -3.60621
 C  2.57407  -1.83014  -3.21637
 C  1.92430  -2.74877  -1.97110
 H  2.25277  -3.84722  -2.13078
 H  2.37660  -2.36825  -0.97724
 H  2.52518  -0.72246  -2.91826
 H  1.92824  -1.99511  -4.16268
 H  4.17252  -3.38054  -3.57443
 H  4.23390  -1.92430  -4.74470
 C  0.30039  -2.67583  -1.90922
 C  -0.33685  -1.26526  -1.24438
 C  -0.68575  -0.10369  -2.41354
 H  0.28740  0.20817  -2.95454
 H  -1.16046  0.81921  -1.90192
 H  -1.43063  -0.54881  -3.17975
 H  -1.30539  -1.52161  -0.67752
 H  0.44053  -0.83219  -0.51815
 H  -0.13012  -2.79369  -2.97704
 H  -0.08399  -3.55897  -1.26342
 C  2.00397  2.68649  0.84467
 C  0.85253  1.92574  1.05290
 C  -0.18904  2.62015  1.74369
 C  0.14161  3.93586  2.08265
 S  1.68358  4.16751  1.51775
 H  0.79778  0.80991  0.82413
 C  -1.51036  1.70781  1.96519
 C  -3.13967  2.15249  1.88707
 C  -3.82054  2.50744  3.38105
 H  -3.01113  2.96789  4.06320
 H  -4.66883  3.27364  3.22573
 H  -3.22309  3.08993  1.21994
 H  -3.73204  1.28973  1.40347
 H  -1.41520  1.22438  3.03160
 H  -1.45762  0.82285  1.19863
 C  -4.40553  1.13534  4.05275
 C  -6.00731  0.73944  3.67119
 C  -6.23679  -0.22877  2.31164
 H  -7.00652  -1.05714  2.56165
 H  -5.23438  -0.71449  2.00080
 H  -6.64024  0.42179  1.44353
 H  -6.58765  1.72207  3.51085
 H  -6.44924  0.17937  4.57794
 H  -3.74836  0.24032  3.72645
 H  -4.34397  1.22939  5.20435
 H  8.73260  -2.39686  -2.23628
 H  5.01775  0.35555  -2.13801
 H  2.89534  2.38172  0.35870
 H  -0.46606  4.63815  2.59366
*
