# ================================================================
# Orca input file made by Matty Jones
# ================================================================
! ZINDO/S 
! NOPOP
! NOMOPRINT
* xyz 0   1
 C  -11.08587  -12.64582  2.79891
 C  -11.85377  -13.61217  3.45035
 C  -11.08842  -14.55393  4.20639
 C  -9.70921  -14.33009  4.15165
 S  -9.51206  -12.99749  3.18432
 H  -12.99391  -13.65534  3.40371
 C  -11.69105  -15.80407  5.06359
 C  -12.98429  -15.75781  6.18865
 C  -13.31693  -17.24874  6.98430
 H  -13.49819  -16.95118  8.09178
 H  -12.31414  -17.82902  6.92903
 H  -13.93508  -15.45266  5.61921
 H  -12.73098  -14.97894  6.99149
 H  -10.80767  -16.26290  5.69224
 H  -12.01908  -16.61465  4.30644
 C  -14.50120  -18.29590  6.57416
 C  -14.51855  -19.78278  7.41153
 C  -13.15865  -20.15253  8.33522
 H  -12.22344  -20.14052  7.65334
 H  -13.28395  -21.20893  8.79245
 H  -13.03756  -19.37539  9.18199
 H  -14.66189  -20.62318  6.63701
 H  -15.42283  -19.76469  8.12796
 H  -14.41596  -18.54661  5.44996
 H  -15.52759  -17.79761  6.76816
 C  10.70567  13.46757  -8.31914
 C  11.31774  14.19633  -7.29828
 C  10.47543  15.18531  -6.70104
 C  9.19176  15.23774  -7.25309
 S  9.16685  14.07407  -8.43448
 H  12.40096  14.03999  -6.97057
 C  10.91234  16.19048  -5.51347
 C  12.10065  17.30427  -5.95699
 C  12.55452  18.46815  -4.81685
 H  11.67263  18.56620  -4.06982
 H  12.66197  19.47643  -5.37617
 H  13.03963  16.71210  -6.26253
 H  11.69561  17.87568  -6.87633
 H  10.02188  16.74115  -5.01692
 H  11.40120  15.55206  -4.65950
 C  13.91079  18.15208  -3.98347
 C  15.28091  18.59908  -4.87233
 C  15.80527  17.34774  -5.86933
 H  16.95992  17.28565  -5.82762
 H  15.46599  17.55773  -6.95597
 H  15.35307  16.34416  -5.51151
 H  15.02729  19.51116  -5.52755
 H  16.12465  18.87122  -4.13897
 H  13.97729  17.03121  -3.72046
 H  13.91780  18.76761  -3.00354
 H  -11.43515  -11.85403  2.18681
 H  -8.94890  -14.89407  4.62858
 H  11.13421  12.69025  -8.89856
 H  8.40031  15.88561  -6.97476
*
