# ================================================================
# Orca input file made by Matty Jones
# ================================================================
! ZINDO/S 
! NOPOP
! NOMOPRINT
* xyz 0   1
 C  21.06713  1.34792  13.28031
 C  20.28631  0.41889  13.96960
 C  21.04014  -0.51728  14.74394
 C  22.42318  -0.32650  14.66570
 S  22.63754  0.97215  13.65676
 H  19.14454  0.41669  13.95597
 C  20.41911  -1.73679  15.63028
 C  19.16202  -1.67722  16.80365
 C  18.82505  -3.17637  17.59100
 H  18.74976  -2.90582  18.71604
 H  19.78524  -3.80842  17.43442
 H  18.20018  -1.34615  16.27159
 H  19.45665  -0.91657  17.60934
 H  21.30368  -2.22698  16.22150
 H  20.02109  -2.54164  14.87639
 C  17.55660  -4.15056  17.24487
 C  17.50213  -5.64343  18.06834
 C  18.11115  -6.95011  17.19396
 H  19.23415  -6.78133  16.97846
 H  17.53027  -7.03644  16.19567
 H  17.97102  -7.92221  17.80593
 H  18.12502  -5.54222  19.03259
 H  16.40629  -5.86863  18.33970
 H  17.54509  -4.38228  16.11431
 H  16.57948  -3.59615  17.52304
 C  -21.46650  -0.80169  -19.34256
 C  -20.28966  -0.26148  -18.82185
 C  -20.49400  0.85891  -17.95743
 C  -21.83898  1.20515  -17.79475
 S  -22.69256  0.12207  -18.71603
 H  -19.27305  -0.72032  -19.05070
 C  -19.11785  1.49823  -17.39840
 C  -18.74183  3.15399  -17.42697
 C  -19.27615  4.04488  -16.09571
 H  -20.36282  3.75868  -15.85904
 H  -19.21895  5.17365  -16.33308
 H  -17.59075  3.24997  -17.47586
 H  -19.20608  3.60839  -18.37498
 H  -19.07705  1.23008  -16.27993
 H  -18.19146  0.96667  -17.90485
 C  -18.34055  3.68988  -14.81673
 C  -18.81087  4.43325  -13.38143
 C  -17.90067  5.79404  -13.01628
 H  -18.17270  6.15587  -11.95087
 H  -18.12301  6.63157  -13.78262
 H  -16.77637  5.51897  -13.05389
 H  -19.91391  4.75637  -13.48540
 H  -18.71422  3.67617  -12.52008
 H  -17.24996  4.00533  -15.04244
 H  -18.35919  2.54667  -14.63473
 H  20.72775  2.12903  12.64922
 H  23.17680  -0.89327  15.14988
 H  -21.55731  -1.62824  -19.99995
 H  -22.23092  1.99460  -17.20587
*
