# ================================================================
# Orca input file made by Matty Jones
# ================================================================
! ZINDO/S 
! NOPOP
! NOMOPRINT
* xyz 0   1
 C  -9.02412  -15.21178  -3.07427
 C  -7.85012  -14.57625  -2.66716
 C  -7.28805  -15.10374  -1.46296
 C  -8.02192  -16.16114  -0.91645
 S  -9.30949  -16.38460  -1.93754
 H  -7.38376  -13.69485  -3.22647
 C  -5.91874  -14.54976  -0.79224
 C  -5.43623  -12.91982  -0.45729
 C  -4.56630  -11.95554  -1.57125
 H  -3.51642  -11.81315  -1.09432
 H  -4.44420  -12.58726  -2.53060
 H  -6.40365  -12.34939  -0.20879
 H  -4.77575  -12.98860  0.48600
 H  -5.82280  -15.04123  0.26246
 H  -5.03146  -14.95295  -1.43545
 C  -5.12381  -10.47523  -1.97101
 C  -4.53092  -9.82545  -3.43027
 C  -3.12969  -8.89019  -3.46533
 H  -2.20606  -9.58397  -3.52314
 H  -3.07248  -8.23487  -2.51487
 H  -3.15716  -8.21034  -4.40406
 H  -4.35804  -10.71694  -4.14291
 H  -5.37794  -9.16404  -3.85476
 H  -6.27503  -10.50965  -2.05502
 H  -4.83450  -9.72573  -1.13753
 C  10.07140  12.97970  0.70623
 C  8.72803  13.17194  1.03225
 C  8.50090  13.49197  2.40712
 C  9.67083  13.55273  3.17058
 S  10.90731  13.21210  2.11915
 H  7.87825  13.08343  0.27491
 C  7.13951  13.80214  3.25906
 C  5.62906  13.03920  3.65669
 C  4.03836  12.93706  3.05563
 H  3.36104  13.23678  3.95528
 H  3.96040  13.78594  2.26811
 H  5.94861  11.92434  3.71761
 H  5.45616  13.42397  4.73991
 H  6.71489  14.79505  2.76851
 H  7.49934  14.10865  4.33372
 C  3.38539  11.59460  2.41147
 C  3.39046  11.51871  0.73375
 C  2.18021  10.49613  0.16310
 H  2.20180  9.49877  0.74741
 H  2.34505  10.29860  -0.96429
 H  1.15425  11.01283  0.31758
 H  3.22362  12.57271  0.30376
 H  4.41015  11.11025  0.38700
 H  3.96582  10.66850  2.79964
 H  2.28570  11.50008  2.76447
 H  -9.60981  -14.99117  -3.92978
 H  -7.80144  -16.70582  -0.03423
 H  10.47266  12.73642  -0.24425
 H  9.75068  13.77085  4.20482
*
