# ================================================================
# Orca input file made by Matty Jones
# ================================================================
! ZINDO/S 
! NOPOP
! NOMOPRINT
* xyz 0   1
 C  33.71876  26.29715  1.77502
 C  32.93794  25.36812  2.46431
 C  33.69176  24.43195  3.23865
 C  35.07481  24.62273  3.16041
 S  35.28916  25.92139  2.15147
 H  31.79616  25.36592  2.45068
 C  33.07073  23.21244  4.12498
 C  31.81365  23.27201  5.29836
 C  31.47667  21.77286  6.08571
 H  31.40139  22.04341  7.21075
 H  32.43687  21.14081  5.92913
 H  30.85180  23.60309  4.76629
 H  32.10827  24.03266  6.10405
 H  33.95530  22.72225  4.71621
 H  32.67272  22.40760  3.37109
 C  30.20823  20.79868  5.73958
 C  30.15375  19.30580  6.56305
 C  30.76277  17.99913  5.68867
 H  31.88578  18.16790  5.47317
 H  30.18189  17.91279  4.69038
 H  30.62264  17.02702  6.30064
 H  30.77664  19.40702  7.52730
 H  29.05791  19.08060  6.83440
 H  30.19671  20.56695  4.60902
 H  29.23110  21.35308  6.01775
 C  -34.25767  -26.27112  -6.37375
 C  -33.49083  -25.33824  -5.67405
 C  -34.26007  -24.35219  -4.98104
 C  -35.64129  -24.50725  -5.13430
 S  -35.83536  -25.83748  -6.10551
 H  -32.35294  -25.38081  -5.60492
 C  -33.56784  -23.18658  -4.09531
 C  -32.17660  -22.36188  -4.58981
 C  -31.68448  -21.14402  -3.50706
 H  -31.99324  -21.47284  -2.44208
 H  -32.25898  -20.17915  -3.77991
 H  -31.32221  -23.12922  -4.67243
 H  -32.37683  -21.87897  -5.61266
 H  -34.34308  -22.32430  -3.94229
 H  -33.28689  -23.62248  -3.05483
 C  -30.08129  -20.85774  -3.53866
 C  -29.49999  -20.17826  -4.97069
 C  -29.49235  -18.50273  -5.06595
 H  -28.67537  -18.07966  -4.36439
 H  -30.52844  -18.09427  -4.75310
 H  -29.26526  -18.18931  -6.15758
 H  -28.41221  -20.54147  -5.10698
 H  -30.14347  -20.58167  -5.83899
 H  -29.50916  -21.84692  -3.35841
 H  -29.81516  -20.12244  -2.68358
 H  33.37937  27.07826  1.14393
 H  35.82843  24.05596  3.64459
 H  -33.90568  -27.08520  -6.95424
 H  -36.40450  -23.90141  -4.71707
*
