# ================================================================
# Orca input file made by Matty Jones
# ================================================================
! ZINDO/S 
! NOPOP
! NOMOPRINT
* xyz 0   1
 C  14.17952  27.54536  -14.06776
 C  14.26195  26.40931  -13.26123
 C  14.38681  26.69214  -11.86528
 C  14.40306  28.05841  -11.56803
 S  14.26403  28.83369  -13.02749
 H  14.67460  25.42578  -13.70981
 C  14.46132  25.35566  -10.96688
 C  13.10003  24.40098  -11.56190
 C  12.30570  22.88587  -11.40598
 H  11.17266  23.10019  -11.34534
 H  12.65845  22.40095  -10.42213
 H  13.34544  24.32257  -12.68622
 H  12.22701  25.14788  -11.40841
 H  14.33390  25.55556  -9.84244
 H  15.43871  24.76877  -11.17808
 C  12.59913  21.87879  -12.66127
 C  11.51025  20.59029  -12.78232
 C  11.93537  19.24381  -11.87954
 H  11.28018  18.34591  -12.20281
 H  11.76028  19.46836  -10.75737
 H  13.05123  18.99446  -12.05721
 H  11.45123  20.27702  -13.89096
 H  10.47397  20.95485  -12.43451
 H  13.66397  21.44189  -12.57068
 H  12.52305  22.46616  -13.65614
 C  -8.28848  -23.87518  12.12160
 C  -9.37092  -24.54093  12.69866
 C  -10.40150  -23.67364  13.17821
 C  -10.13149  -22.31620  12.97881
 S  -8.65264  -22.26127  12.23020
 H  -9.88944  -25.56991  12.44559
 C  -11.79596  -24.09871  13.87801
 C  -12.99706  -24.58737  12.77077
 C  -13.76471  -23.14924  12.24560
 H  -14.32291  -22.74730  13.17999
 H  -12.89537  -22.42053  12.00196
 H  -12.52467  -25.12638  11.87854
 H  -13.76591  -25.25252  13.30001
 H  -12.23023  -23.25321  14.53876
 H  -11.61278  -25.01564  14.57698
 C  -14.80029  -23.07803  10.98707
 C  -16.47071  -23.11499  11.23992
 C  -17.16877  -24.63455  11.10038
 H  -16.46334  -25.42672  11.56170
 H  -17.34135  -24.87245  9.98032
 H  -18.18319  -24.64212  11.65744
 H  -16.96176  -22.42380  10.45686
 H  -16.68755  -22.70840  12.29581
 H  -14.59035  -22.09152  10.41109
 H  -14.55927  -23.96275  10.27697
 H  14.08320  27.57772  -15.12288
 H  14.48671  28.50506  -10.61038
 H  -7.41728  -24.30970  11.70232
 H  -10.74381  -21.49437  13.24947
*
