# ================================================================
# Orca input file made by Matty Jones
# ================================================================
! ZINDO/S 
! NOPOP
! NOMOPRINT
* xyz 0   1
 C  -5.92000  29.71850  -2.28616
 C  -6.21977  28.35615  -2.33136
 C  -5.92389  27.65279  -1.12223
 C  -5.38778  28.46384  -0.11719
 S  -5.30917  29.98709  -0.76832
 H  -6.65169  27.82660  -3.25827
 C  -6.23063  26.06634  -1.02967
 C  -6.58015  25.17456  0.37909
 C  -8.11358  24.99630  1.07786
 H  -7.96924  24.89055  2.22028
 H  -8.71647  25.95735  0.86510
 H  -6.32123  24.08114  0.03943
 H  -5.84394  25.41381  1.20218
 H  -5.30217  25.51167  -1.48798
 H  -7.13833  25.83296  -1.72692
 C  -8.90496  23.69623  0.50088
 C  -8.52160  22.21512  1.22959
 C  -9.50615  21.73413  2.50558
 H  -8.97645  21.96377  3.50842
 H  -9.70055  20.59506  2.42369
 H  -10.51355  22.30059  2.45804
 H  -7.44020  22.28584  1.62405
 H  -8.57565  21.40213  0.41349
 H  -10.04308  23.85862  0.64028
 H  -8.68830  23.58746  -0.63028
 C  11.72104  -24.98538  -1.48893
 C  10.40675  -24.68554  -1.12749
 C  10.23458  -24.39800  0.26246
 C  11.41889  -24.47117  1.00229
 S  12.60011  -24.88199  -0.08691
 H  9.54144  -24.63751  -1.87147
 C  8.89158  -24.00547  1.10037
 C  7.35466  -24.73564  1.42572
 C  5.78333  -24.84802  0.75630
 H  5.03615  -24.63144  1.61445
 H  5.68945  -24.00925  -0.03185
 H  7.65910  -25.84473  1.57426
 H  7.11822  -24.28899  2.47631
 H  9.25116  -23.76581  2.19298
 H  8.53929  -22.97991  0.64700
 C  5.42785  -26.28820  0.08864
 C  5.04770  -26.36295  -1.55079
 C  3.39992  -26.57594  -1.83323
 H  2.81524  -25.65054  -1.46210
 H  3.03848  -27.51868  -1.26562
 H  3.22625  -26.72173  -2.96803
 H  5.36928  -25.37324  -2.04637
 H  5.62269  -27.23946  -2.02574
 H  6.31964  -27.01182  0.24562
 H  4.51527  -26.72761  0.65900
 H  -6.05449  30.43119  -3.05919
 H  -5.09329  28.16718  0.85691
 H  12.08127  -25.22804  -2.45585
 H  11.53696  -24.29991  2.04168
*
