# ================================================================
# Orca input file made by Matty Jones
# ================================================================
! ZINDO/S 
! NOPOP
! NOMOPRINT
* xyz 0   1
 C  9.81649  -14.77740  27.94101
 C  9.89892  -15.91345  28.74754
 C  10.02378  -15.63063  30.14350
 C  10.04002  -14.26436  30.44075
 S  9.90100  -13.48907  28.98128
 H  10.31156  -16.89699  28.29897
 C  10.09829  -16.96710  31.04190
 C  8.73699  -17.92178  30.44688
 C  7.94266  -19.43689  30.60280
 H  6.80963  -19.22257  30.66344
 H  8.29541  -19.92181  31.58665
 H  8.98241  -18.00019  29.32255
 H  7.86398  -17.17489  30.60036
 H  9.97086  -16.76720  32.16634
 H  11.07568  -17.55399  30.83069
 C  8.23610  -20.44397  29.34751
 C  7.14721  -21.73247  29.22645
 C  7.57233  -23.07896  30.12924
 H  6.91715  -23.97685  29.80597
 H  7.39724  -22.85440  31.25140
 H  8.68819  -23.32830  29.95157
 H  7.08819  -22.04574  28.11781
 H  6.11094  -21.36791  29.57427
 H  9.30094  -20.88087  29.43809
 H  8.16002  -19.85660  28.35263
 C  -10.68319  15.16938  -32.21966
 C  -10.08553  15.86424  -31.16711
 C  -10.92218  16.86197  -30.57652
 C  -12.18688  16.95542  -31.16569
 S  -12.20313  15.81471  -32.36941
 H  -9.02122  15.67555  -30.81156
 C  -10.49846  17.82766  -29.34989
 C  -9.17361  18.84076  -29.63773
 C  -8.76431  19.93817  -28.41085
 H  -9.72994  20.48173  -28.08293
 H  -8.34803  19.33853  -27.51645
 H  -8.25438  18.17665  -29.83334
 H  -9.41877  19.45446  -30.58229
 H  -11.38019  18.48264  -28.97449
 H  -10.17673  17.15253  -28.44120
 C  -7.66485  21.02962  -28.92042
 C  -6.06092  20.58564  -28.65406
 C  -5.45276  19.56477  -29.84352
 H  -6.22038  19.45764  -30.70251
 H  -5.24989  18.52455  -29.37636
 H  -4.46521  20.00122  -30.25940
 H  -5.42359  21.54702  -28.64570
 H  -5.98140  20.06435  -27.63088
 H  -7.84088  22.03196  -28.36742
 H  -7.79682  21.21628  -30.05486
 H  9.72017  -14.74505  26.88589
 H  10.12368  -13.81770  31.39840
 H  -10.25558  14.39282  -32.80078
 H  -12.97102  17.61687  -30.89883
*
