# ================================================================
# Orca input file made by Matty Jones
# ================================================================
! ZINDO/S 
! NOPOP
! NOMOPRINT
* xyz 0   1
 C  33.73161  26.40578  1.89627
 C  32.96371  25.43942  2.54772
 C  33.72906  24.49766  3.30376
 C  35.10826  24.72151  3.24902
 S  35.30542  26.05411  2.28169
 H  31.82357  25.39626  2.50107
 C  33.12643  23.24753  4.16096
 C  31.83319  23.29379  5.28602
 C  31.50055  21.80286  6.08167
 H  31.31929  22.10042  7.18915
 H  32.50334  21.22257  6.02640
 H  30.88240  23.59893  4.71657
 H  32.08650  24.07266  6.08886
 H  34.00981  22.78870  4.78961
 H  32.79840  22.43695  3.40381
 C  30.31628  20.75570  5.67153
 C  30.29893  19.26882  6.50889
 C  31.65883  18.89907  7.43259
 H  32.59404  18.91107  6.75071
 H  31.53353  17.84267  7.88982
 H  31.77992  19.67621  8.27936
 H  30.15559  18.42842  5.73438
 H  29.39465  19.28691  7.22533
 H  30.40151  20.50498  4.54733
 H  29.28989  21.25399  5.86552
 C  -34.23115  -26.20452  -6.21175
 C  -33.58387  -25.09731  -5.66126
 C  -34.45344  -24.19582  -4.97173
 C  -35.79410  -24.59319  -4.97776
 S  -35.83250  -26.01896  -5.82402
 H  -32.45388  -24.93939  -5.70652
 C  -33.95665  -22.84737  -4.23056
 C  -32.75870  -21.85590  -4.89929
 C  -31.25764  -22.31422  -4.25578
 H  -31.19229  -23.46757  -4.31349
 H  -31.27789  -22.00724  -3.13716
 H  -32.73921  -21.99409  -6.03858
 H  -32.96932  -20.75964  -4.62926
 H  -34.87514  -22.13353  -4.09143
 H  -33.55928  -23.12127  -3.17025
 C  -29.93887  -21.66530  -4.94815
 C  -29.51960  -20.09162  -4.50376
 C  -30.19618  -18.93978  -5.52942
 H  -30.69668  -19.46148  -6.43325
 H  -29.36287  -18.23118  -5.90892
 H  -30.99028  -18.33040  -4.94895
 H  -29.88389  -19.89417  -3.43000
 H  -28.37235  -19.99367  -4.54770
 H  -30.06645  -21.68746  -6.09784
 H  -29.02757  -22.33128  -4.67533
 H  33.38233  27.19757  1.28418
 H  35.86857  24.15753  3.72595
 H  -33.79166  -26.99696  -6.76173
 H  -36.61414  -24.08875  -4.53430
*
