# ================================================================
# Orca input file made by Matty Jones
# ================================================================
! ZINDO/S 
! NOPOP
! NOMOPRINT
* xyz 0   1
 C  4.52074  -5.59971  -4.95540
 C  5.71339  -5.04413  -4.48975
 C  5.53609  -3.90033  -3.65038
 C  4.19669  -3.55096  -3.45224
 S  3.31468  -4.66004  -4.31389
 H  6.73805  -5.47587  -4.74211
 C  6.92523  -3.26190  -3.11442
 C  7.36257  -1.62888  -3.15647
 C  6.89969  -0.71300  -1.82416
 H  5.81055  -0.95694  -1.54863
 H  6.98146  0.40458  -2.10861
 H  8.51358  -1.57741  -3.23964
 H  6.89597  -1.16364  -4.10212
 H  7.00779  -3.54610  -1.97932
 H  7.81768  -3.79945  -3.64950
 C  7.87289  -1.04084  -0.55998
 C  7.52860  -0.19498  0.85440
 C  8.51744  1.14229  1.09110
 H  8.16976  2.00852  0.40883
 H  9.61074  0.85802  0.83583
 H  8.45408  1.46730  2.20026
 H  6.43648  0.17273  0.79931
 H  7.64775  -0.91021  1.74949
 H  8.96942  -0.81238  -0.85190
 H  7.79077  -2.16783  -0.30515
 C  -2.06969  3.13268  0.28005
 C  -3.14720  2.33198  0.66185
 C  -4.19865  3.04304  1.31996
 C  -3.95014  4.41212  1.45854
 S  -2.46348  4.66720  0.76920
 H  -3.18812  1.21163  0.44190
 C  -5.41644  2.04847  1.73232
 C  -7.06564  2.22306  1.38766
 C  -8.15963  2.94829  2.43202
 H  -7.61222  3.77456  3.02255
 H  -9.00571  3.42388  1.80622
 H  -7.10983  2.82997  0.40006
 H  -7.46297  1.15952  1.17180
 H  -5.39736  1.97145  2.90959
 H  -5.17234  0.97397  1.33918
 C  -8.78651  1.84972  3.47003
 C  -10.11237  0.91901  2.96454
 C  -9.76377  -0.62234  2.37783
 H  -10.75266  -1.21535  2.26554
 H  -9.07198  -1.16929  3.12717
 H  -9.24155  -0.54030  1.35014
 H  -10.65080  1.49844  2.12630
 H  -10.82128  0.79993  3.86566
 H  -7.95237  1.10146  3.76488
 H  -9.12619  2.40804  4.42626
 H  4.40945  -6.44430  -5.58618
 H  3.82328  -2.74582  -2.87266
 H  -1.18593  2.82470  -0.21767
 H  -4.58007  5.13545  1.90972
*
