# ================================================================
# Orca input file made by Matty Jones
# ================================================================
! ZINDO/S 
! NOPOP
! NOMOPRINT
* xyz 0   1
 C  18.36130  4.78874  7.80247
 C  17.53835  3.91131  8.51012
 C  18.20646  3.19719  9.55316
 C  19.56382  3.51232  9.66971
 S  19.86171  4.64203  8.49266
 H  16.41998  3.79112  8.32048
 C  17.46132  2.13426  10.50881
 C  16.24585  1.01526  10.08796
 C  15.48047  0.84550  8.58803
 H  15.40179  1.86674  8.06696
 H  16.08427  0.11661  7.93069
 H  16.70359  -0.02949  10.30212
 H  15.40721  1.20498  10.86263
 H  17.03170  2.71834  11.42988
 H  18.26243  1.38884  10.90218
 C  13.98992  0.24922  8.90344
 C  12.88222  0.07458  7.64865
 C  12.81087  -1.46950  6.99586
 H  11.81039  -1.59111  6.42533
 H  12.86480  -2.25178  7.84693
 H  13.69581  -1.62276  6.26769
 H  13.16607  0.81224  6.80927
 H  11.83648  0.34292  8.05503
 H  14.11679  -0.79609  9.38847
 H  13.47939  0.94498  9.67998
 C  -18.09001  -5.05099  -11.76445
 C  -16.89737  -4.49541  -11.29880
 C  -17.07466  -3.35161  -10.45943
 C  -18.41406  -3.00224  -10.26129
 S  -19.29607  -4.11132  -11.12293
 H  -15.87270  -4.92714  -11.55115
 C  -15.68552  -2.71318  -9.92347
 C  -15.24818  -1.08016  -9.96552
 C  -15.71106  -0.16427  -8.63321
 H  -16.80020  -0.40821  -8.35767
 H  -15.62930  0.95331  -8.91765
 H  -14.09717  -1.02869  -10.04869
 H  -15.71478  -0.61492  -10.91117
 H  -15.60296  -2.99738  -8.78837
 H  -14.79307  -3.25073  -10.45855
 C  -14.73786  -0.49211  -7.36902
 C  -15.08215  0.35375  -5.95465
 C  -14.09331  1.69102  -5.71795
 H  -14.44099  2.55725  -6.40021
 H  -13.00001  1.40674  -5.97322
 H  -14.15667  2.01602  -4.60878
 H  -16.17427  0.72146  -6.00974
 H  -14.96301  -0.36148  -5.05956
 H  -13.64134  -0.26366  -7.66094
 H  -14.81999  -1.61911  -7.11419
 H  18.08530  5.41654  6.99421
 H  20.25720  3.11279  10.36483
 H  -18.20130  -5.89558  -12.39522
 H  -18.78747  -2.19710  -9.68171
*
