# ================================================================
# Orca input file made by Matty Jones
# ================================================================
! ZINDO/S 
! NOPOP
! NOMOPRINT
* xyz 0   1
 C  -15.83034  -4.94762  9.13338
 C  -14.44523  -4.77907  9.16397
 C  -13.81735  -5.31594  10.33094
 C  -14.71120  -5.91142  11.22635
 S  -16.21023  -5.74469  10.53676
 H  -13.86371  -4.36965  8.27175
 C  -12.21844  -5.17787  10.43569
 C  -11.74529  -3.57006  10.07897
 C  -10.11155  -3.16847  10.09124
 H  -10.05169  -2.08295  10.50165
 H  -9.59055  -3.86815  10.85257
 H  -12.14557  -3.32250  9.03009
 H  -12.27425  -2.89577  10.85249
 H  -11.84521  -5.37182  11.51796
 H  -11.68152  -5.88983  9.70802
 C  -9.28388  -3.20891  8.68289
 C  -10.09891  -3.14759  7.19802
 C  -10.54304  -4.62523  6.52822
 H  -10.13848  -4.68785  5.44444
 H  -11.69765  -4.70732  6.51426
 H  -10.10072  -5.48939  7.15624
 H  -11.04026  -2.49655  7.31793
 H  -9.38535  -2.63182  6.44732
 H  -8.66841  -4.19215  8.66570
 H  -8.53985  -2.32017  8.67726
 C  16.96728  4.57550  -10.92506
 C  15.69029  4.04956  -10.72362
 C  14.84834  4.85999  -9.89985
 C  15.46360  6.03177  -9.44855
 S  16.99540  6.00385  -10.08356
 H  15.33072  3.06871  -11.18668
 C  13.36663  4.28468  -9.59933
 C  11.95000  5.22742  -9.56866
 C  10.58468  4.23644  -9.33955
 H  9.69833  4.77456  -9.85405
 H  10.78320  3.24369  -9.90038
 H  11.84754  5.78840  -10.56408
 H  11.95702  5.95236  -8.69023
 H  13.37719  3.75364  -8.55412
 H  13.13296  3.46580  -10.39789
 C  10.17615  3.91082  -7.79946
 C  8.84390  2.87280  -7.67688
 C  7.35920  3.66157  -7.64514
 H  6.55284  2.93717  -7.23932
 H  7.07886  3.99208  -8.71818
 H  7.43007  4.58896  -6.95717
 H  8.95220  2.26459  -6.70402
 H  8.85486  2.15785  -8.58040
 H  11.06467  3.40215  -7.26162
 H  9.91743  4.89146  -7.24584
 H  -16.49856  -4.63251  8.37325
 H  -14.47924  -6.37279  12.15205
 H  17.75340  4.15125  -11.49571
 H  15.03970  6.78103  -8.83006
*
