# ================================================================
# Orca input file made by Matty Jones
# ================================================================
! ZINDO/S 
! NOPOP
! NOMOPRINT
* xyz 0   1
 C  28.47360  -1.09867  6.44216
 C  27.58433  -2.12614  6.76060
 C  27.97423  -2.90534  7.89422
 C  29.17744  -2.49107  8.47383
 S  29.68838  -1.20064  7.56599
 H  26.62580  -2.34214  6.17719
 C  27.00981  -4.12637  8.35515
 C  27.35625  -5.50635  9.31065
 C  28.02341  -6.99026  8.83223
 H  28.72173  -6.78100  7.93475
 H  28.66558  -7.37799  9.71508
 H  26.25943  -5.83446  9.59558
 H  27.81854  -5.19735  10.30078
 H  26.57154  -4.60519  7.37684
 H  26.10879  -3.64089  8.92429
 C  26.93258  -8.12878  8.41924
 C  26.23965  -8.99844  9.69837
 C  24.79777  -8.32907  10.25713
 H  25.03222  -7.42455  10.93890
 H  24.21396  -9.12682  10.85920
 H  24.16016  -7.98305  9.35560
 H  26.02210  -10.06856  9.33224
 H  26.98736  -9.03140  10.57271
 H  26.07301  -7.63757  7.82237
 H  27.45278  -8.90874  7.73776
 C  -22.29732  6.21743  -10.67392
 C  -23.56461  5.68894  -10.42376
 C  -24.38560  6.51044  -9.58987
 C  -23.76344  7.69358  -9.17949
 S  -22.25158  7.66145  -9.86041
 H  -23.92690  4.68869  -10.83587
 C  -25.86574  5.94663  -9.24045
 C  -27.29633  6.86344  -9.16239
 C  -28.68213  5.90962  -8.88084
 H  -29.54531  6.42461  -9.45796
 H  -28.47980  4.88005  -9.36940
 H  -27.42195  7.45588  -10.13455
 H  -27.26023  7.55043  -8.25342
 H  -25.81102  5.42433  -8.19046
 H  -26.12190  5.11290  -10.02136
 C  -29.15992  5.67152  -7.34280
 C  -30.49813  4.63998  -7.20502
 C  -30.06975  3.02414  -7.01417
 H  -29.51208  2.66022  -7.96040
 H  -31.02503  2.39007  -6.85727
 H  -29.37935  2.91987  -6.09113
 H  -31.13522  4.73715  -8.15968
 H  -31.11762  4.96490  -6.29076
 H  -28.29405  5.21499  -6.72953
 H  -29.45798  6.68469  -6.87123
 H  28.39001  -0.40038  5.64906
 H  29.66160  -2.91339  9.31694
 H  -21.52660  5.78650  -11.26033
 H  -24.17249  8.45217  -8.56239
*
