# ================================================================
# Orca input file made by Matty Jones
# ================================================================
! ZINDO/S 
! NOPOP
! NOMOPRINT
* xyz 0   1
 C  15.16108  29.26410  -12.37647
 C  14.08357  28.46340  -11.99468
 C  13.03212  29.17446  -11.33656
 C  13.28063  30.54354  -11.19799
 S  14.76729  30.79862  -11.88733
 H  14.04265  27.34305  -12.21462
 C  11.81433  28.17989  -10.92420
 C  10.16513  28.35448  -11.26886
 C  9.07114  29.07971  -10.22450
 H  9.61855  29.90598  -9.63397
 H  8.22506  29.55530  -10.85030
 H  10.12094  28.96139  -12.25646
 H  9.76780  27.29094  -11.48473
 H  11.83341  28.10287  -9.74693
 H  12.05843  27.10539  -11.31734
 C  8.44426  27.98114  -9.18649
 C  7.11840  27.05043  -9.69198
 C  7.46700  25.50908  -10.27869
 H  6.47811  24.91607  -10.39099
 H  8.15879  24.96213  -9.52936
 H  7.98922  25.59112  -11.30639
 H  6.57997  27.62986  -10.53023
 H  6.40949  26.93135  -8.79086
 H  9.27840  27.23288  -8.89164
 H  8.10458  28.53946  -8.23027
 C  -6.10904  -27.81955  9.37367
 C  -7.42333  -27.51971  9.73510
 C  -7.59551  -27.23217  11.12505
 C  -6.41119  -27.30534  11.86489
 S  -5.22997  -27.71616  10.77569
 H  -8.28864  -27.47168  8.99113
 C  -8.93850  -26.83964  11.96296
 C  -10.47542  -27.56981  12.28832
 C  -12.04675  -27.68220  11.61890
 H  -12.79393  -27.46561  12.47705
 H  -12.14063  -26.84342  10.83075
 H  -10.17098  -28.67890  12.43685
 H  -10.71186  -27.12316  13.33891
 H  -8.57892  -26.59998  13.05558
 H  -9.29079  -25.81408  11.50960
 C  -12.40223  -29.12238  10.95123
 C  -12.78238  -29.19712  9.31181
 C  -14.43016  -29.41012  9.02937
 H  -15.01484  -28.48471  9.40050
 H  -14.79160  -30.35285  9.59698
 H  -14.60383  -29.55591  7.89457
 H  -12.46080  -28.20741  8.81622
 H  -12.20739  -30.07364  8.83686
 H  -11.51044  -29.84599  11.10821
 H  -13.31481  -29.56179  11.52160
 H  16.04484  28.95612  -12.87419
 H  12.65069  31.26687  -10.74681
 H  -5.74881  -28.06221  8.40674
 H  -6.29312  -27.13408  12.90428
*
