# ================================================================
# Orca input file made by Matty Jones
# ================================================================
! ZINDO/S 
! NOPOP
! NOMOPRINT
* xyz 0   1
 C  38.17815  27.47897  0.60863
 C  37.41025  26.51262  1.26007
 C  38.17560  25.57086  2.01611
 C  39.55481  25.79470  1.96138
 S  39.75196  27.12731  0.99405
 H  36.27011  26.46946  1.21343
 C  37.57298  24.32073  2.87331
 C  36.27973  24.36699  3.99837
 C  35.94710  22.87605  4.79402
 H  35.76583  23.17362  5.90151
 H  36.94989  22.29577  4.73876
 H  35.32894  24.67213  3.42893
 H  36.53304  25.14585  4.80122
 H  38.45635  23.86190  3.50197
 H  37.24494  23.51015  2.11617
 C  34.76282  21.82890  4.38388
 C  34.74548  20.34202  5.22125
 C  36.10538  19.97226  6.14494
 H  37.04058  19.98427  5.46306
 H  35.98008  18.91587  6.60218
 H  36.22647  20.74940  6.99171
 H  34.60214  19.50161  4.44673
 H  33.84120  20.36011  5.93769
 H  34.84806  21.57818  3.25968
 H  33.73644  22.32718  4.57788
 C  -32.31965  -23.13618  -5.02761
 C  -33.63394  -22.83633  -4.66618
 C  -33.80611  -22.54879  -3.27623
 C  -32.62180  -22.62196  -2.53639
 S  -31.44058  -23.03278  -3.62560
 H  -34.49925  -22.78831  -5.41016
 C  -35.14911  -22.15627  -2.43832
 C  -36.68603  -22.88643  -2.11297
 C  -38.25736  -22.99882  -2.78238
 H  -39.00454  -22.78223  -1.92423
 H  -38.35124  -22.16004  -3.57054
 H  -36.38159  -23.99553  -1.96443
 H  -36.92247  -22.43978  -1.06237
 H  -34.78953  -21.91661  -1.34570
 H  -35.50140  -21.13070  -2.89168
 C  -38.61284  -24.43900  -3.45005
 C  -38.99299  -24.51374  -5.08947
 C  -40.64077  -24.72674  -5.37191
 H  -41.22545  -23.80133  -5.00078
 H  -41.00220  -25.66947  -4.80430
 H  -40.81444  -24.87253  -6.50671
 H  -38.67141  -23.52403  -5.58506
 H  -38.41800  -25.39026  -5.56442
 H  -37.72105  -25.16261  -3.29307
 H  -39.52542  -24.87841  -2.87968
 H  37.82887  28.27077  -0.00347
 H  40.31512  25.23073  2.43830
 H  -31.95942  -23.37883  -5.99454
 H  -32.50373  -22.45070  -1.49700
*
