# ================================================================
# Orca input file made by Matty Jones
# ================================================================
! ZINDO/S 
! NOPOP
! NOMOPRINT
* xyz 0   1
 C  15.17640  29.20850  -12.29704
 C  14.02497  28.44775  -12.08881
 C  12.98340  29.14216  -11.39802
 C  13.31405  30.45787  -11.05906
 S  14.85601  30.68952  -11.62396
 H  13.97022  27.33192  -12.31758
 C  11.66208  28.22982  -11.17652
 C  10.03276  28.67450  -11.25464
 C  9.35190  29.02945  -9.76066
 H  10.16130  29.48990  -9.07851
 H  8.50360  29.79565  -9.91598
 H  9.94935  29.61194  -11.92177
 H  9.44039  27.81174  -11.73824
 H  11.75723  27.74639  -10.11011
 H  11.71481  27.34486  -11.94308
 C  8.76690  27.65735  -9.08897
 C  7.16513  27.26145  -9.47052
 C  6.93564  26.29324  -10.83007
 H  6.16591  25.46487  -10.58006
 H  7.93805  25.80752  -11.14092
 H  6.53219  26.94380  -11.69818
 H  6.58479  28.24408  -9.63086
 H  6.72320  26.70138  -8.56377
 H  9.42407  26.76233  -9.41526
 H  8.82846  27.75140  -7.93736
 C  -6.03997  -27.73462  9.38333
 C  -7.38334  -27.54238  9.70935
 C  -7.61047  -27.22236  11.08422
 C  -6.44053  -27.16159  11.84769
 S  -5.20406  -27.50223  10.79625
 H  -8.23312  -27.63089  8.95201
 C  -8.97185  -26.91219  11.93616
 C  -10.48230  -27.67512  12.33380
 C  -12.07301  -27.77726  11.73273
 H  -12.75032  -27.47755  12.63238
 H  -12.15097  -26.92838  10.94521
 H  -10.16276  -28.78999  12.39472
 H  -10.65520  -27.29036  13.41701
 H  -9.39647  -25.91927  11.44562
 H  -8.61202  -26.60567  13.01083
 C  -12.72597  -29.11973  11.08857
 C  -12.72090  -29.19561  9.41086
 C  -13.93116  -30.21820  8.84020
 H  -13.90957  -31.21556  9.42452
 H  -13.76631  -30.41572  7.71282
 H  -14.95711  -29.70150  8.99469
 H  -12.88774  -28.14161  8.98086
 H  -11.70122  -29.60407  9.06411
 H  -12.14555  -30.04582  11.47674
 H  -13.82567  -29.21424  11.44157
 H  16.06777  28.90373  -12.78302
 H  12.70637  31.16016  -10.54805
 H  -5.63870  -27.97790  8.43285
 H  -6.36068  -26.94348  12.88193
*
