# ================================================================
# Orca input file made by Matty Jones
# ================================================================
! ZINDO/S 
! NOPOP
! NOMOPRINT
* xyz 0   1
 C  27.51898  -0.18415  3.56318
 C  26.95815  -1.37163  4.03564
 C  27.49330  -1.81320  5.28579
 C  28.48171  -0.97014  5.80310
 S  28.63925  0.25996  4.70197
 H  26.13007  -1.93823  3.48976
 C  26.97968  -3.18362  5.96989
 C  25.32612  -3.61294  6.03409
 C  24.83610  -4.56535  4.72352
 H  25.02066  -3.94957  3.76277
 H  25.53530  -5.48938  4.70429
 H  25.14450  -4.20901  7.00098
 H  24.70112  -2.64913  6.04169
 H  27.23761  -3.19467  7.10197
 H  27.51986  -4.07948  5.46905
 C  23.29146  -5.08487  4.74688
 C  22.44824  -4.73957  3.32488
 C  20.85706  -5.28437  3.32555
 H  20.78897  -6.28091  3.90938
 H  20.51018  -5.44978  2.23341
 H  20.18266  -4.49074  3.83012
 H  23.00203  -5.24943  2.45180
 H  22.44607  -3.59864  3.16894
 H  23.26727  -6.23047  4.90243
 H  22.72322  -4.58095  5.61904
 C  -20.12380  4.05192  -6.63526
 C  -21.39108  3.52343  -6.38510
 C  -22.21207  4.34493  -5.55121
 C  -21.58992  5.52807  -5.14083
 S  -20.07805  5.49594  -5.82175
 H  -21.75338  2.52318  -6.79721
 C  -23.69221  3.78112  -5.20178
 C  -25.12281  4.69793  -5.12372
 C  -26.50860  3.74411  -4.84218
 H  -27.37179  4.25910  -5.41930
 H  -26.30627  2.71454  -5.33074
 H  -25.24842  5.29037  -6.09589
 H  -25.08670  5.38492  -4.21475
 H  -23.63749  3.25882  -4.15179
 H  -23.94837  2.94739  -5.98270
 C  -26.98640  3.50601  -3.30414
 C  -28.32461  2.47447  -3.16636
 C  -27.89622  0.85863  -2.97551
 H  -27.33855  0.49471  -3.92174
 H  -28.85151  0.22456  -2.81861
 H  -27.20582  0.75436  -2.05247
 H  -28.96169  2.57164  -4.12102
 H  -28.94409  2.79939  -2.25210
 H  -26.12052  3.04948  -2.69087
 H  -27.28445  4.51918  -2.83257
 H  27.27928  0.32621  2.66558
 H  29.01799  -1.09180  6.70930
 H  -19.35307  3.62099  -7.22167
 H  -21.99897  6.28667  -4.52372
*
