# ================================================================
# Orca input file made by Matty Jones
# ================================================================
! ZINDO/S 
! NOPOP
! NOMOPRINT
* xyz 0   1
 C  -9.13479  -8.69782  4.62033
 C  -9.90269  -9.66417  5.27178
 C  -9.13734  -10.60593  6.02782
 C  -7.75813  -10.38209  5.97308
 S  -7.56098  -9.04949  5.00575
 H  -11.04283  -9.70733  5.22513
 C  -9.73997  -11.85607  6.88502
 C  -11.03321  -11.80981  8.01008
 C  -11.36585  -13.30074  8.80573
 H  -11.54711  -13.00318  9.91321
 H  -10.36306  -13.88102  8.75046
 H  -11.98400  -11.50466  7.44063
 H  -10.77990  -11.03094  8.81292
 H  -8.85659  -12.31490  7.51367
 H  -10.06800  -12.66665  6.12787
 C  -12.55012  -14.34790  8.39559
 C  -12.56747  -15.83478  9.23295
 C  -11.20757  -16.20453  10.15665
 H  -10.27236  -16.19252  9.47477
 H  -11.33287  -17.26093  10.61388
 H  -11.08648  -15.42739  11.00342
 H  -12.71080  -16.67518  8.45844
 H  -13.47175  -15.81669  9.94939
 H  -12.46488  -14.59861  7.27139
 H  -13.57651  -13.84961  8.58958
 C  14.40629  14.58681  -9.05427
 C  13.42219  13.99157  -8.26362
 C  12.78321  14.88923  -7.35248
 C  13.26519  16.19992  -7.42403
 S  14.44004  16.17944  -8.59439
 H  13.23324  12.86829  -8.23212
 C  11.60884  14.42964  -6.34534
 C  10.11599  13.98766  -7.00901
 C  9.81804  12.47947  -7.69848
 H  10.81458  12.23110  -8.22789
 H  9.02489  12.69777  -8.52619
 H  9.87698  14.78088  -7.81520
 H  9.34887  14.09850  -6.14649
 H  11.38644  15.27452  -5.57650
 H  11.97768  13.50460  -5.73587
 C  9.31834  11.12788  -6.94300
 C  9.02403  9.90724  -8.09282
 C  7.44483  9.77747  -8.66221
 H  7.25177  8.68629  -8.99831
 H  7.29987  10.48906  -9.56346
 H  6.70504  10.06084  -7.82023
 H  9.35824  8.89858  -7.65701
 H  9.63714  10.16730  -9.02927
 H  8.34694  11.32100  -6.35404
 H  10.13637  10.74836  -6.22222
 H  -9.48407  -7.90603  4.00824
 H  -6.99782  -10.94607  6.45001
 H  15.00572  14.11930  -9.79299
 H  12.94639  17.03230  -6.85035
*
