# ================================================================
# Orca input file made by Matty Jones
# ================================================================
! ZINDO/S 
! NOPOP
! NOMOPRINT
* xyz 0   1
 C  11.86012  -10.90714  29.89803
 C  11.86044  -12.04311  30.70888
 C  11.93897  -11.76142  32.10843
 C  12.00098  -10.39614  32.40420
 S  11.95601  -9.62028  30.93913
 H  12.21345  -13.04385  30.26625
 C  11.90534  -13.13133  32.98219
 C  10.55289  -14.04320  32.31452
 C  9.79632  -15.57628  32.47334
 H  8.66415  -15.39479  32.59354
 H  10.21358  -16.07010  33.42574
 H  10.76465  -14.08060  31.18271
 H  9.67760  -13.30905  32.51010
 H  11.71164  -12.92264  34.09776
 H  12.86512  -13.75406  32.84058
 C  10.05564  -16.55385  31.18349
 C  9.27673  -18.06284  31.16276
 C  7.77701  -18.15273  30.39344
 H  6.94848  -18.30025  31.18767
 H  7.77705  -19.05522  29.66721
 H  7.57910  -17.18020  29.80033
 H  9.12838  -18.38990  32.25795
 H  9.98160  -18.80616  30.63288
 H  11.19011  -16.76270  31.09620
 H  9.71152  -15.99918  30.22570
 C  -6.67805  16.42409  -32.85311
 C  -7.66215  15.82884  -32.06246
 C  -8.30112  16.72651  -31.15133
 C  -7.81914  18.03720  -31.22288
 S  -6.64429  18.01672  -32.39324
 H  -7.85109  14.70557  -32.03097
 C  -9.47549  16.26692  -30.14418
 C  -10.96834  15.82494  -30.80786
 C  -11.26629  14.31674  -31.49732
 H  -10.26975  14.06838  -32.02674
 H  -12.05944  14.53505  -32.32504
 H  -11.20736  16.61816  -31.61405
 H  -11.73546  15.93578  -29.94534
 H  -9.69789  17.11180  -29.37535
 H  -9.10666  15.34188  -29.53472
 C  -11.76599  12.96516  -30.74185
 C  -12.06030  11.74452  -31.89166
 C  -13.63950  11.61474  -32.46105
 H  -13.83256  10.52357  -32.79716
 H  -13.78446  12.32634  -33.36231
 H  -14.37929  11.89812  -31.61908
 H  -11.72609  10.73586  -31.45586
 H  -11.44720  12.00457  -32.82811
 H  -12.73739  13.15828  -30.15289
 H  -10.94796  12.58564  -30.02106
 H  11.80930  -10.87407  28.83977
 H  12.06362  -9.95041  33.36389
 H  -6.07861  15.95657  -33.59183
 H  -8.13794  18.86957  -30.64920
*
