# ================================================================
# Orca input file made by Matty Jones
# ================================================================
! ZINDO/S 
! NOPOP
! NOMOPRINT
* xyz 0   1
 C  -9.05270  -8.51442  4.53469
 C  -9.83351  -9.44346  5.22398
 C  -9.07969  -10.37962  5.99832
 C  -7.69664  -10.18885  5.92008
 S  -7.48229  -8.89019  4.91114
 H  -10.97529  -9.44565  5.21035
 C  -9.70072  -11.59914  6.88465
 C  -10.95780  -11.53956  8.05803
 C  -11.29478  -13.03872  8.84538
 H  -11.37006  -12.76816  9.97042
 H  -10.33458  -13.67077  8.68880
 H  -11.91965  -11.20849  7.52596
 H  -10.66318  -10.77892  8.86372
 H  -8.81615  -12.08933  7.47588
 H  -10.09874  -12.40398  6.13076
 C  -12.56322  -14.01290  8.49925
 C  -12.61770  -15.50577  9.32272
 C  -12.00868  -16.81245  8.44834
 H  -10.88567  -16.64367  8.23284
 H  -12.58956  -16.89878  7.45005
 H  -12.14881  -17.78456  9.06031
 H  -11.99481  -15.40456  10.28697
 H  -13.71354  -15.73098  9.59407
 H  -12.57474  -14.24462  7.36869
 H  -13.54035  -13.45850  8.77742
 C  14.33787  14.65329  -8.99985
 C  13.46548  14.03413  -8.10348
 C  12.76370  14.94187  -7.25039
 C  13.08356  16.28459  -7.47426
 S  14.20210  16.27808  -8.69870
 H  13.85296  13.07414  -7.55917
 C  11.70404  14.37424  -6.16395
 C  10.55914  13.36234  -6.96183
 C  9.21536  12.40250  -6.51265
 H  8.92615  12.72005  -5.43898
 H  8.34958  12.67675  -7.22808
 H  11.26295  12.58761  -7.42044
 H  10.12719  14.05924  -7.77820
 H  11.11451  15.23514  -5.65919
 H  12.23925  13.74513  -5.34960
 C  9.43992  10.78418  -6.54505
 C  9.25076  10.06448  -8.08031
 C  7.75597  9.47508  -8.57788
 H  7.90122  8.43451  -9.06545
 H  7.30198  10.20130  -9.35754
 H  7.04833  9.38477  -7.66913
 H  9.99308  9.18302  -8.13105
 H  9.53144  10.86473  -8.86094
 H  8.67021  10.27876  -5.84631
 H  10.50159  10.53160  -6.16973
 H  -9.39208  -7.73331  3.90360
 H  -6.94302  -10.75561  6.40426
 H  14.95674  14.18379  -9.72107
 H  12.69290  17.12966  -6.96746
*
