# ================================================================
# Orca input file made by Matty Jones
# ================================================================
! ZINDO/S 
! NOPOP
! NOMOPRINT
* xyz 0   1
 C  25.76160  -4.40759  5.35111
 C  24.87233  -5.43506  5.66956
 C  25.26222  -6.21426  6.80317
 C  26.46544  -5.79999  7.38279
 S  26.97638  -4.50957  6.47495
 H  23.91379  -5.65106  5.08614
 C  24.29780  -7.43529  7.26410
 C  24.64425  -8.81527  8.21960
 C  25.31141  -10.29918  7.74118
 H  26.00972  -10.08992  6.84370
 H  25.95358  -10.68691  8.62404
 H  23.54742  -9.14338  8.50453
 H  25.10654  -8.50627  9.20974
 H  23.85954  -7.91412  6.28579
 H  23.39679  -6.94981  7.83324
 C  24.22058  -11.43770  7.32819
 C  23.52764  -12.30736  8.60732
 C  22.08577  -11.63799  9.16608
 H  22.32022  -10.73347  9.84786
 H  21.50196  -12.43574  9.76815
 H  21.44815  -11.29197  8.26455
 H  23.31009  -13.37748  8.24119
 H  24.27536  -12.34032  9.48167
 H  23.36100  -10.94649  6.73132
 H  24.74077  -12.21766  6.64672
 C  -26.94019  5.61596  -9.26677
 C  -26.06161  6.55340  -8.72163
 C  -26.69063  7.52209  -7.87890
 C  -28.07288  7.34870  -7.75798
 S  -28.43887  6.02460  -8.68705
 H  -24.93885  6.55542  -8.91525
 C  -25.90057  8.72295  -7.15345
 C  -24.88584  9.65202  -8.12436
 C  -24.22886  10.95099  -7.26631
 H  -25.09635  11.43985  -6.67183
 H  -23.86164  11.71866  -8.05345
 H  -24.04032  8.98906  -8.52583
 H  -25.50580  10.07016  -9.00072
 H  -26.55766  9.46912  -6.56690
 H  -25.19413  8.23297  -6.34469
 C  -23.01269  10.61731  -6.24355
 C  -21.48448  10.51273  -6.94348
 C  -21.09101  8.92996  -7.35621
 H  -20.06939  8.92154  -7.89909
 H  -21.90281  8.49124  -8.05190
 H  -21.02327  8.29453  -6.39065
 H  -21.46243  11.15855  -7.89654
 H  -20.70534  10.90390  -6.19102
 H  -23.22615  9.61467  -5.70595
 H  -22.96034  11.45307  -5.44112
 H  25.67800  -3.70930  4.55802
 H  26.94960  -6.22231  8.22590
 H  -26.70000  4.81222  -9.91477
 H  -28.74586  7.93981  -7.19117
*
