# ================================================================
# Orca input file made by Matty Jones
# ================================================================
! ZINDO/S 
! NOPOP
! NOMOPRINT
* xyz 0   1
 C  0.02843  6.30226  -5.97771
 C  -0.27133  4.93991  -6.02291
 C  0.02454  4.23655  -4.81377
 C  0.56065  5.04760  -3.80874
 S  0.63926  6.57085  -4.45986
 H  -0.70326  4.41036  -6.94982
 C  -0.28220  2.65011  -4.72122
 C  -0.63172  1.75832  -3.31246
 C  -2.16514  1.58006  -2.61369
 H  -2.02081  1.47432  -1.47127
 H  -2.76803  2.54111  -2.82645
 H  -0.37280  0.66491  -3.65212
 H  0.10450  1.99757  -2.48936
 H  0.64626  2.09543  -5.17953
 H  -1.18990  2.41673  -5.41847
 C  -2.95653  0.27999  -3.19066
 C  -2.57316  -1.20112  -2.46196
 C  -3.55771  -1.68211  -1.18596
 H  -3.02802  -1.45247  -0.18313
 H  -3.75212  -2.82118  -1.26786
 H  -4.56512  -1.11565  -1.23350
 H  -1.49177  -1.13039  -2.06750
 H  -2.62721  -2.01411  -3.27806
 H  -4.09465  0.44239  -3.05127
 H  -2.73987  0.17122  -4.32182
 C  2.97765  2.21353  0.45577
 C  2.20974  1.24718  1.10721
 C  2.97509  0.30542  1.86325
 C  4.35430  0.52926  1.80851
 S  4.55146  1.86186  0.84118
 H  1.06961  1.20402  1.06057
 C  2.37247  -0.94472  2.72045
 C  1.07922  -0.89846  3.84551
 C  0.74659  -2.38939  4.64116
 H  0.56532  -2.09183  5.74864
 H  1.74938  -2.96967  4.58589
 H  0.12843  -0.59331  3.27607
 H  1.33254  -0.11959  4.64835
 H  3.25584  -1.40355  3.34910
 H  2.04443  -1.75530  1.96330
 C  -0.43769  -3.43655  4.23102
 C  -0.45503  -4.92343  5.06839
 C  0.90487  -5.29318  5.99208
 H  1.84008  -5.28117  5.31020
 H  0.77957  -6.34958  6.44931
 H  1.02596  -4.51604  6.83885
 H  -0.59837  -5.76383  4.29387
 H  -1.35931  -4.90534  5.78482
 H  -0.35245  -3.68726  3.10682
 H  -1.46407  -2.93826  4.42502
 H  -0.10606  7.01496  -6.75074
 H  0.85514  4.75094  -2.83464
 H  2.62836  3.00532  -0.15633
 H  5.11461  -0.03472  2.28544
*
