# ================================================================
# Orca input file made by Matty Jones
# ================================================================
! ZINDO/S 
! NOPOP
! NOMOPRINT
* xyz 0   1
 C  -0.82706  -0.76423  38.31723
 C  -0.74463  -1.90028  39.12376
 C  -0.61977  -1.61745  40.51972
 C  -0.60352  -0.25118  40.81697
 S  -0.74255  0.52410  39.35750
 H  -0.33198  -2.88381  38.67519
 C  -0.54526  -2.95393  41.41812
 C  -1.90655  -3.90861  40.82310
 C  -2.70088  -5.42372  40.97902
 H  -3.83392  -5.20940  41.03966
 H  -2.34813  -5.90864  41.96287
 H  -1.66114  -3.98702  39.69878
 H  -2.77956  -3.16171  40.97658
 H  -0.67268  -2.75403  42.54256
 H  0.43213  -3.54082  41.20691
 C  -2.40745  -6.43080  39.72373
 C  -3.49633  -7.71930  39.60267
 C  -3.07121  -9.06578  40.50546
 H  -3.72640  -9.96368  40.18219
 H  -3.24630  -8.84123  41.62762
 H  -1.95535  -9.31513  40.32779
 H  -3.55535  -8.03257  38.49403
 H  -4.53261  -7.35474  39.95049
 H  -1.34261  -6.86770  39.81431
 H  -2.48353  -5.84343  38.72885
 C  -0.23357  1.02974  -43.41774
 C  0.94326  1.56995  -42.89703
 C  0.73892  2.69034  -42.03261
 C  -0.60606  3.03658  -41.86993
 S  -1.45964  1.95349  -42.79121
 H  1.95988  1.11111  -43.12588
 C  2.11508  3.32965  -41.47358
 C  2.49110  4.98541  -41.50215
 C  1.95678  5.87630  -40.17089
 H  0.87011  5.59011  -39.93422
 H  2.01398  7.00507  -40.40827
 H  3.64217  5.08139  -41.55105
 H  2.02685  5.43981  -42.45017
 H  2.15588  3.06150  -40.35511
 H  3.04147  2.79810  -41.98003
 C  2.89238  5.52130  -38.89192
 C  2.42206  6.26467  -37.45661
 C  3.33226  7.62547  -37.09146
 H  3.06022  7.98730  -36.02606
 H  3.10992  8.46300  -37.85780
 H  4.45655  7.35040  -37.12907
 H  1.31902  6.58780  -37.56058
 H  2.51871  5.50760  -36.59526
 H  3.98296  5.83676  -39.11762
 H  2.87373  4.37809  -38.70992
 H  -0.92338  -0.73187  37.26211
 H  -0.99799  3.82602  -41.28106
*
