# ================================================================
# Orca input file made by Matty Jones
# ================================================================
! ZINDO/S 
! NOPOP
! NOMOPRINT
* xyz 0   1
 C  26.23904  1.61888  8.42358
 C  25.93927  0.25653  8.37837
 C  26.23515  -0.44683  9.58751
 C  26.77126  0.36422  10.59255
 S  26.84987  1.88747  9.94142
 H  25.50735  -0.27302  7.45146
 C  25.92841  -2.03327  9.68007
 C  25.57889  -2.92506  11.08883
 C  24.04547  -3.10332  11.78760
 H  24.18980  -3.20906  12.93001
 H  23.44258  -2.14226  11.57483
 H  25.83781  -4.01847  10.74916
 H  26.31511  -2.68581  11.91192
 H  26.85687  -2.58795  9.22175
 H  25.02071  -2.26665  8.98281
 C  23.25408  -4.40339  11.21062
 C  23.63745  -5.88450  11.93932
 C  22.65290  -6.36549  13.21532
 H  23.18259  -6.13584  14.21816
 H  22.45849  -7.50455  13.13342
 H  21.64549  -5.79903  13.16778
 H  24.71884  -5.81377  12.33378
 H  23.58340  -6.69749  11.12322
 H  22.11596  -4.24099  11.35001
 H  23.47074  -4.51216  10.07946
 C  -20.03943  3.99865  -12.52933
 C  -21.11693  3.19796  -12.14754
 C  -22.16838  3.90902  -11.48942
 C  -21.91988  5.27809  -11.35085
 S  -20.43321  5.53318  -12.04019
 H  -21.15786  2.07760  -12.36748
 C  -23.38618  2.91444  -11.07707
 C  -25.03538  3.08904  -11.42173
 C  -26.12937  3.81427  -10.37737
 H  -25.58196  4.64054  -9.78684
 H  -26.97545  4.28986  -11.00317
 H  -25.07957  3.69595  -12.40932
 H  -25.43271  2.02550  -11.63759
 H  -23.36710  2.83743  -9.89979
 H  -23.14208  1.83995  -11.47020
 C  -26.75625  2.71570  -9.33935
 C  -28.08211  1.78499  -9.84484
 C  -27.73351  0.24363  -10.43156
 H  -28.72239  -0.34937  -10.54385
 H  -27.04172  -0.30331  -9.68222
 H  -27.21129  0.32568  -11.45925
 H  -28.62054  2.36442  -10.68309
 H  -28.79102  1.66590  -8.94372
 H  -25.92211  1.96743  -9.04450
 H  -27.09593  3.27401  -8.38313
 H  26.10455  2.33158  7.65054
 H  27.06575  0.06756  11.56664
 H  -19.15567  3.69068  -13.02706
 H  -22.54981  6.00143  -10.89967
*
