# ================================================================
# Orca input file made by Matty Jones
# ================================================================
! ZINDO/S 
! NOPOP
! NOMOPRINT
* xyz 0   1
 C  15.06533  22.60953  -15.69722
 C  16.24216  23.14974  -15.17652
 C  16.03782  24.27013  -14.31209
 C  14.69284  24.61637  -14.14941
 S  13.83926  23.53329  -15.07069
 H  17.25878  22.69090  -15.40536
 C  17.41398  24.90945  -13.75306
 C  17.79000  26.56521  -13.78163
 C  17.25568  27.45610  -12.45037
 H  16.16901  27.16990  -12.21370
 H  17.31288  28.58487  -12.68775
 H  18.94107  26.66119  -13.83053
 H  17.32575  27.01961  -14.72965
 H  17.45478  24.64130  -12.63459
 H  18.34037  24.37789  -14.25952
 C  18.19127  27.10110  -11.17140
 C  17.72096  27.84446  -9.73609
 C  18.63116  29.20526  -9.37094
 H  18.35912  29.56709  -8.30554
 H  18.40882  30.04279  -10.13728
 H  19.75545  28.93019  -9.40855
 H  16.61792  28.16759  -9.84006
 H  17.81761  27.08739  -8.87474
 H  19.28186  27.41655  -11.39710
 H  18.17263  25.95789  -10.98940
 C  -12.80422  -25.69023  11.23249
 C  -14.14760  -25.49799  11.55851
 C  -14.37472  -25.17796  12.93338
 C  -13.20479  -25.11720  13.69685
 S  -11.96831  -25.45783  12.64541
 H  -14.99738  -25.58649  10.80117
 C  -15.73611  -24.86779  13.78532
 C  -17.24656  -25.63072  14.18296
 C  -18.83726  -25.73286  13.58189
 H  -19.51458  -25.43315  14.48154
 H  -18.91522  -24.88398  12.79437
 H  -16.92701  -26.74559  14.24388
 H  -17.41946  -25.24596  15.26617
 H  -16.16073  -23.87488  13.29478
 H  -15.37628  -24.56128  14.85999
 C  -19.49023  -27.07533  12.93773
 C  -19.48516  -27.15121  11.26002
 C  -20.69541  -28.17380  10.68936
 H  -20.67383  -29.17116  11.27368
 H  -20.53057  -28.37132  9.56198
 H  -21.72137  -27.65710  10.84385
 H  -19.65200  -26.09722  10.83002
 H  -18.46547  -27.55968  10.91327
 H  -18.90980  -28.00143  13.32590
 H  -20.58992  -27.16984  13.29073
 H  14.97451  21.78298  -16.35461
 H  14.30091  25.40582  -13.56054
 H  -12.40296  -25.93350  10.28201
 H  -13.12494  -24.89908  14.73109
*
