# ================================================================
# Orca input file made by Matty Jones
# ================================================================
! ZINDO/S 
! NOPOP
! NOMOPRINT
* xyz 0   1
 C  21.59825  1.12262  8.69123
 C  20.70898  0.09516  9.00967
 C  21.09887  -0.68404  10.14329
 C  22.30209  -0.26977  10.72290
 S  22.81303  1.02065  9.81506
 H  19.75044  -0.12084  8.42626
 C  20.13445  -1.90507  10.60422
 C  20.48090  -3.28505  11.55972
 C  21.14806  -4.76897  11.08130
 H  21.84637  -4.55970  10.18382
 H  21.79023  -5.15670  11.96415
 H  19.38407  -3.61316  11.84465
 H  20.94319  -2.97606  12.54985
 H  19.69619  -2.38390  9.62591
 H  19.23344  -1.41959  11.17336
 C  20.05723  -5.90748  10.66831
 C  19.36429  -6.77714  11.94744
 C  17.92242  -6.10777  12.50620
 H  18.15687  -5.20326  13.18797
 H  17.33861  -6.90552  13.10827
 H  17.28480  -5.76175  11.60467
 H  19.14674  -7.84726  11.58131
 H  20.11201  -6.81010  12.82178
 H  19.19765  -5.41628  10.07144
 H  20.57742  -6.68744  9.98683
 C  -21.61352  1.00315  -14.77181
 C  -21.00568  1.44169  -13.59448
 C  -21.82424  2.30481  -12.80122
 C  -23.08480  2.54905  -13.35497
 S  -23.11975  1.69623  -14.77691
 H  -20.08321  0.94475  -13.11482
 C  -21.14529  2.88625  -11.46756
 C  -19.60180  3.46090  -11.80814
 C  -18.55292  4.05469  -10.63689
 H  -18.66296  5.20823  -10.61838
 H  -17.47378  3.80295  -10.97705
 H  -19.01532  2.60491  -12.31645
 H  -19.76041  4.31383  -12.57317
 H  -21.80413  3.72872  -11.00765
 H  -21.08551  2.03144  -10.67911
 C  -18.79691  3.46102  -9.14792
 C  -19.94753  4.33827  -8.28894
 C  -19.27115  5.68637  -7.54851
 H  -18.50825  5.34581  -6.74883
 H  -20.10991  6.30920  -7.05049
 H  -18.73479  6.32836  -8.34822
 H  -20.77810  4.68149  -9.00812
 H  -20.39410  3.65488  -7.47607
 H  -17.80199  3.48503  -8.55598
 H  -19.15542  2.36253  -9.21391
 H  21.51465  1.82092  7.89813
 H  22.78625  -0.69209  11.56601
 H  -21.19953  0.36216  -15.50757
 H  -23.85648  3.15286  -12.95058
*
