# ================================================================
# Orca input file made by Matty Jones
# ================================================================
! ZINDO/S 
! NOPOP
! NOMOPRINT
* xyz 0   1
 C  -20.46407  -6.08448  11.23372
 C  -19.08089  -5.89850  11.24383
 C  -18.41019  -6.56350  12.31724
 C  -19.26811  -7.27818  13.15898
 S  -20.78993  -7.05287  12.53954
 H  -18.52305  -5.39624  10.38529
 C  -16.80689  -6.39530  12.40717
 C  -16.35071  -4.76086  12.21762
 C  -14.73227  -4.28965  12.20543
 H  -14.67940  -3.26374  12.74158
 H  -14.15184  -5.06206  12.84385
 H  -16.80964  -4.38125  11.23196
 H  -16.84948  -4.19765  13.09629
 H  -16.40687  -6.71679  13.44936
 H  -16.28087  -7.02275  11.58960
 C  -14.00197  -4.15239  10.75107
 C  -14.83584  -4.53175  9.32487
 C  -15.65012  -3.25728  8.58220
 H  -15.10132  -2.97248  7.60323
 H  -15.67749  -2.34315  9.29048
 H  -16.73154  -3.58844  8.33463
 H  -14.05491  -4.92619  8.57050
 H  -15.59304  -5.36888  9.55155
 H  -13.65235  -3.05289  10.63055
 H  -13.05938  -4.82771  10.75866
 C  14.53786  0.54944  -11.21294
 C  15.37894  1.64422  -11.00813
 C  14.75401  2.74396  -10.34158
 C  13.41269  2.51643  -10.01845
 S  13.07529  0.98804  -10.56673
 H  16.47073  1.69389  -11.33531
 C  15.75876  3.99891  -10.11772
 C  15.51288  5.56719  -10.70243
 C  16.89125  6.50744  -10.33044
 H  16.57012  7.61653  -10.37528
 H  17.20786  6.25386  -9.25036
 H  15.37737  5.53260  -11.84139
 H  14.59419  6.03067  -10.19672
 H  15.86102  4.14235  -8.95911
 H  16.82649  3.70704  -10.49841
 C  18.16176  6.27670  -11.33806
 C  18.38632  7.27122  -12.69091
 C  19.41985  8.57784  -12.44211
 H  18.89119  9.36348  -11.77864
 H  19.68985  9.04932  -13.46493
 H  20.38560  8.21190  -11.92016
 H  18.82990  6.62569  -13.53680
 H  17.35879  7.67858  -13.01384
 H  19.13345  6.36492  -10.71021
 H  18.10441  5.19507  -11.75176
 H  -21.15961  -5.68985  10.53795
 H  -19.00157  -7.84524  14.01397
 H  14.78252  -0.36880  -11.68260
 H  12.75026  3.18157  -9.52614
*
