# ================================================================
# Orca input file made by Matty Jones
# ================================================================
! ZINDO/S 
! NOPOP
! NOMOPRINT
* xyz 0   1
 C  4.08803  -7.08573  36.57024
 C  4.08835  -8.22170  37.38109
 C  4.16688  -7.94001  38.78065
 C  4.22889  -6.57473  39.07641
 S  4.18392  -5.79887  37.61134
 H  4.44136  -9.22244  36.93846
 C  4.13325  -9.30992  39.65440
 C  2.78080  -10.22179  38.98673
 C  2.02423  -11.75486  39.14555
 H  0.89206  -11.57338  39.26575
 H  2.44149  -12.24869  40.09795
 H  2.99255  -10.25919  37.85492
 H  1.90551  -9.48764  39.18232
 H  3.93955  -9.10123  40.76997
 H  5.09303  -9.93264  39.51280
 C  2.28354  -12.73244  37.85570
 C  1.50464  -14.24143  37.83497
 C  0.00492  -14.33132  37.06566
 H  -0.82362  -14.47884  37.85988
 H  0.00496  -15.23381  36.33942
 H  -0.19299  -13.35879  36.47254
 H  1.35628  -14.56849  38.93017
 H  2.20951  -14.98474  37.30509
 H  3.41802  -12.94129  37.76841
 H  1.93942  -12.17777  36.89792
 C  -4.47958  6.06128  -37.91766
 C  -3.71405  7.22822  -37.90678
 C  -4.29930  8.30357  -37.16830
 C  -5.53320  7.98415  -36.59314
 S  -5.83092  6.41017  -37.02254
 H  -2.68832  7.33308  -38.39583
 C  -3.37292  9.64133  -37.20218
 C  -3.79232  11.25946  -37.48377
 C  -2.35053  12.18705  -37.56382
 H  -2.60966  13.26580  -37.24854
 H  -1.58813  11.74472  -36.82075
 H  -4.35291  11.34019  -38.48186
 H  -4.43367  11.64936  -36.61926
 H  -2.83635  9.68191  -36.16400
 H  -2.52106  9.46745  -37.99658
 C  -1.71546  12.19041  -39.07284
 C  -0.23113  12.96402  -39.34317
 C  -0.32171  14.57818  -39.80715
 H  -1.30371  14.76192  -40.39052
 H  0.58237  14.83147  -40.48519
 H  -0.29758  15.24900  -38.86459
 H  0.38772  12.89981  -38.37390
 H  0.31276  12.38911  -40.18337
 H  -1.56779  11.09218  -39.41125
 H  -2.48032  12.68863  -39.78663
 H  4.03721  -7.05265  35.51198
 H  4.29153  -6.12900  40.03610
 H  -4.24626  5.14514  -38.39708
 H  -6.14927  8.61578  -36.00569
*
