# ================================================================
# Orca input file made by Matty Jones
# ================================================================
! ZINDO/S 
! NOPOP
! NOMOPRINT
* xyz 0   1
 C  36.05808  29.66489  3.44753
 C  35.27726  28.73586  4.13682
 C  36.03108  27.79970  4.91116
 C  37.41413  27.99047  4.83291
 S  37.62848  29.28913  3.82398
 H  34.13548  28.73366  4.12319
 C  35.41005  26.58018  5.79749
 C  34.15297  26.63976  6.97087
 C  33.81599  25.14060  7.75822
 H  33.74071  25.41116  8.88325
 H  34.77619  24.50855  7.60164
 H  33.19112  26.97083  6.43880
 H  34.44760  27.40040  7.77656
 H  36.29463  26.08999  6.38872
 H  35.01204  25.77534  5.04360
 C  32.54755  24.16642  7.41209
 C  32.49307  22.67355  8.23556
 C  33.10209  21.36687  7.36117
 H  34.22510  21.53565  7.14567
 H  32.52122  21.28054  6.36289
 H  32.96196  20.39476  7.97315
 H  33.11596  22.77476  9.19981
 H  31.39723  22.44834  8.50691
 H  32.53603  23.93470  6.28153
 H  31.57042  24.72082  7.69025
 C  -29.53704  -25.69922  -6.44063
 C  -30.61948  -26.36498  -5.86357
 C  -31.65006  -25.49769  -5.38402
 C  -31.38005  -24.14025  -5.58342
 S  -29.90120  -24.08531  -6.33204
 H  -31.13800  -27.39396  -6.11665
 C  -33.04452  -25.92276  -4.68422
 C  -34.24562  -26.41141  -5.79147
 C  -35.01327  -24.97328  -6.31664
 H  -35.57147  -24.57134  -5.38224
 H  -34.14393  -24.24457  -6.56027
 H  -33.77323  -26.95043  -6.68369
 H  -35.01447  -27.07657  -5.26223
 H  -33.47879  -25.07726  -4.02348
 H  -32.86134  -26.83968  -3.98526
 C  -36.04885  -24.90207  -7.57516
 C  -37.71927  -24.93903  -7.32231
 C  -38.41733  -26.45859  -7.46186
 H  -37.71190  -27.25077  -7.00053
 H  -38.58991  -26.69650  -8.58191
 H  -39.43175  -26.46617  -6.90479
 H  -38.21032  -24.24785  -8.10538
 H  -37.93611  -24.53244  -6.26643
 H  -35.83891  -23.91556  -8.15114
 H  -35.80783  -25.78679  -8.28527
 H  35.71869  30.44601  2.81644
 H  38.16775  27.42371  5.31710
 H  -28.66584  -26.13374  -6.85992
 H  -31.99237  -23.31842  -5.31276
*
