# ================================================================
# Orca input file made by Matty Jones
# ================================================================
! ZINDO/S 
! NOPOP
! NOMOPRINT
* xyz 0   1
 C  14.27437  27.32024  -13.82513
 C  14.27469  26.18427  -13.01428
 C  14.35322  26.46596  -11.61473
 C  14.41523  27.83124  -11.31896
 S  14.37026  28.60710  -12.78403
 H  14.62770  25.18353  -13.45691
 C  14.31959  25.09605  -10.74097
 C  12.96714  24.18418  -11.40865
 C  12.21057  22.65111  -11.24982
 H  11.07840  22.83259  -11.12962
 H  12.62783  22.15728  -10.29742
 H  13.17890  24.14678  -12.54046
 H  12.09185  24.91833  -11.21306
 H  14.12589  25.30474  -9.62541
 H  15.27937  24.47333  -10.88258
 C  12.46989  21.67353  -12.53967
 C  11.69098  20.16454  -12.56041
 C  10.19126  20.07465  -13.32972
 H  9.36273  19.92713  -12.53549
 H  10.19130  19.17216  -14.05596
 H  9.99335  21.04718  -13.92284
 H  11.54262  19.83748  -11.46521
 H  12.39585  19.42123  -13.09029
 H  13.60436  21.46468  -12.62697
 H  12.12577  22.22820  -13.49746
 C  -8.01360  -23.92545  12.51728
 C  -9.14178  -24.64239  12.91866
 C  -10.22056  -23.82419  13.37808
 C  -9.94281  -22.45428  13.33927
 S  -8.39883  -22.32921  12.74691
 H  -9.62368  -25.65501  12.54138
 C  -11.67507  -24.30699  13.89120
 C  -12.69829  -24.89451  12.67395
 C  -13.46296  -23.54953  11.93123
 H  -12.71474  -22.66924  12.05364
 H  -13.49784  -23.81940  10.80301
 H  -12.09109  -25.46557  11.88861
 H  -13.50563  -25.56404  13.13795
 H  -12.25057  -23.51653  14.49587
 H  -11.52041  -25.21662  14.61622
 C  -14.93437  -22.98266  12.34850
 C  -16.17369  -23.58982  11.36649
 C  -16.38980  -22.71531  9.94040
 H  -16.60866  -21.60834  10.19284
 H  -17.27803  -23.16510  9.35044
 H  -15.42658  -22.78670  9.30267
 H  -17.15824  -23.54915  11.96284
 H  -15.92730  -24.68059  11.09559
 H  -15.17238  -23.27734  13.44005
 H  -14.95033  -21.82963  12.26336
 H  14.22355  27.35332  -14.88340
 H  14.47787  28.27697  -10.35927
 H  -7.10258  -24.31854  12.14429
 H  -10.58472  -21.66169  13.62801
*
