# ================================================================
# Orca input file made by Matty Jones
# ================================================================
! ZINDO/S 
! NOPOP
! NOMOPRINT
* xyz 0   1
 C  22.44417  4.46901  8.43306
 C  21.62122  3.59158  9.14071
 C  22.28934  2.87746  10.18375
 C  23.64670  3.19259  10.30030
 S  23.94458  4.32231  9.12325
 H  20.50285  3.47140  8.95107
 C  21.54419  1.81453  11.13940
 C  20.32872  0.69554  10.71855
 C  19.56334  0.52578  9.21862
 H  19.48466  1.54702  8.69755
 H  20.16714  -0.20312  8.56127
 H  20.78646  -0.34921  10.93271
 H  19.49008  0.88526  11.49322
 H  21.11457  2.39862  12.06046
 H  22.34531  1.06912  11.53277
 C  18.07279  -0.07050  9.53402
 C  16.96509  -0.24515  8.27924
 C  16.89374  -1.78923  7.62645
 H  15.89326  -1.91084  7.05592
 H  16.94767  -2.57151  8.47752
 H  17.77869  -1.94249  6.89827
 H  17.24894  0.49252  7.43986
 H  15.91935  0.02319  8.68562
 H  18.19966  -1.11581  10.01906
 H  17.56226  0.62525  10.31057
 C  -14.89406  -1.40750  -8.98831
 C  -15.99532  -1.92683  -9.67052
 C  -17.14275  -1.07383  -9.66207
 C  -16.94653  0.12511  -8.96970
 S  -15.38564  0.06749  -8.41226
 H  -15.83207  -2.18763  -10.84087
 C  -18.45888  -1.59989  -10.43883
 C  -20.05739  -1.22358  -10.05491
 C  -20.78902  -2.15544  -8.85696
 H  -20.43020  -3.24727  -8.97656
 H  -20.42425  -1.75328  -7.83474
 H  -20.10894  -0.11877  -9.74200
 H  -20.67568  -1.36842  -11.02246
 H  -18.43882  -2.77200  -10.42932
 H  -18.34935  -1.28569  -11.56669
 C  -22.41650  -2.10595  -8.91538
 C  -23.15157  -0.69197  -8.36267
 C  -23.43783  0.41039  -9.60654
 H  -22.65539  1.26057  -9.54997
 H  -24.50131  0.85086  -9.48397
 H  -23.35867  -0.12028  -10.63165
 H  -24.15946  -0.96531  -7.87768
 H  -22.46613  -0.19435  -7.58327
 H  -22.76511  -2.28816  -10.00349
 H  -22.82992  -2.96802  -8.25772
 H  22.16817  5.09682  7.62480
 H  24.34008  2.79307  10.99542
 H  -13.94376  -1.86053  -8.86456
 H  -17.64847  0.90706  -8.83033
*
