# ================================================================
# Orca input file made by Matty Jones
# ================================================================
! ZINDO/S 
! NOPOP
! NOMOPRINT
* xyz 0   1
 C  -13.62883  -3.57520  1.00145
 C  -14.45178  -4.45263  1.70910
 C  -13.78366  -5.16675  2.75214
 C  -12.42631  -4.85161  2.86869
 S  -12.12842  -3.72190  1.69164
 H  -15.57015  -4.57281  1.51947
 C  -14.52881  -6.22968  3.70779
 C  -15.74428  -7.34867  3.28694
 C  -16.50966  -7.51843  1.78701
 H  -16.58834  -6.49719  1.26594
 H  -15.90586  -8.24732  1.12967
 H  -15.28654  -8.39342  3.50110
 H  -16.58292  -7.15895  4.06162
 H  -14.95843  -5.64559  4.62886
 H  -13.72770  -6.97509  4.10116
 C  -18.00021  -8.11471  2.10242
 C  -19.10791  -8.28935  0.84764
 C  -19.17926  -9.83344  0.19484
 H  -20.17974  -9.95505  -0.37569
 H  -19.12533  -10.61572  1.04591
 H  -18.29431  -9.98669  -0.53333
 H  -18.82406  -7.55169  0.00825
 H  -20.15365  -8.02102  1.25401
 H  -17.87334  -9.16002  2.58745
 H  -18.51074  -7.41895  2.87896
 C  20.38247  6.57659  -3.55575
 C  19.15660  6.06043  -3.97848
 C  18.02681  6.59850  -3.28686
 C  18.36228  7.54430  -2.31309
 S  20.01582  7.66337  -2.35844
 H  18.80661  5.83904  -5.10506
 C  16.52245  6.11641  -3.66584
 C  15.28248  5.69984  -2.54695
 C  15.47795  5.63417  -0.86502
 H  14.60938  5.00818  -0.42853
 H  16.47808  5.10836  -0.63283
 H  14.41348  6.42896  -2.75559
 H  14.94770  4.63233  -2.84712
 H  16.62883  5.15595  -4.32367
 H  16.04078  6.94826  -4.33397
 C  15.45060  7.12794  -0.22855
 C  13.99730  7.88782  0.14354
 C  13.51575  8.97683  -1.05541
 H  12.36244  8.97941  -1.14267
 H  13.97351  8.66488  -2.07183
 H  13.88099  10.04172  -0.78974
 H  13.22228  7.04363  0.22472
 H  14.11712  8.41168  1.15665
 H  16.14183  7.18970  0.69089
 H  15.85084  7.76137  -1.10896
 H  -13.90483  -2.94739  0.19319
 H  -11.73292  -5.25114  3.56382
 H  21.34496  6.32655  -3.92275
 H  17.69865  8.07422  -1.67874
*
