# ================================================================
# Orca input file made by Matty Jones
# ================================================================
! ZINDO/S 
! NOPOP
! NOMOPRINT
* xyz 0   1
 C  25.15630  2.82054  5.85568
 C  24.33335  1.94311  6.56333
 C  25.00146  1.22899  7.60637
 C  26.35882  1.54412  7.72292
 S  26.65670  2.67384  6.54587
 H  23.21497  1.82292  6.37370
 C  24.25632  0.16606  8.56202
 C  23.04085  -0.95293  8.14117
 C  22.27547  -1.12270  6.64124
 H  22.19678  -0.10145  6.12017
 H  22.87927  -1.85159  5.98390
 H  23.49859  -1.99769  8.35533
 H  22.20220  -0.76322  8.91585
 H  23.82669  0.75015  9.48309
 H  25.05743  -0.57935  8.95539
 C  20.78491  -1.71897  6.95665
 C  19.67721  -1.89362  5.70186
 C  19.60586  -3.43770  5.04907
 H  18.60538  -3.55931  4.47854
 H  19.65979  -4.21998  5.90014
 H  20.49081  -3.59096  4.32090
 H  19.96107  -1.15595  4.86248
 H  18.63147  -1.62528  6.10824
 H  20.91179  -2.76428  7.44168
 H  20.27438  -1.02322  7.73319
 C  -17.88545  1.71320  -8.47578
 C  -18.96295  0.91251  -8.09399
 C  -20.01440  1.62357  -7.43587
 C  -19.76590  2.99264  -7.29730
 S  -18.27923  3.24773  -7.98664
 H  -19.00388  -0.20785  -8.31393
 C  -21.23220  0.62900  -7.02352
 C  -22.88140  0.80359  -7.36817
 C  -23.97539  1.52882  -6.32381
 H  -23.42798  2.35509  -5.73328
 H  -24.82147  2.00441  -6.94962
 H  -22.92559  1.41050  -8.35577
 H  -23.27873  -0.25995  -7.58404
 H  -21.21312  0.55198  -5.84624
 H  -20.98810  -0.44550  -7.41665
 C  -24.60227  0.43025  -5.28580
 C  -25.92813  -0.50046  -5.79129
 C  -25.57953  -2.04182  -6.37801
 H  -26.56841  -2.63482  -6.49030
 H  -24.88774  -2.58876  -5.62867
 H  -25.05731  -1.95977  -7.40570
 H  -26.46656  0.07897  -6.62954
 H  -26.63704  -0.61955  -4.89017
 H  -23.76813  -0.31801  -4.99095
 H  -24.94195  0.98857  -4.32958
 H  24.88030  3.44834  5.04742
 H  27.05220  1.14459  8.41805
 H  -17.00169  1.40523  -8.97351
 H  -20.39583  3.71598  -6.84612
*
