# ================================================================
# Orca input file made by Matty Jones
# ================================================================
! ZINDO/S 
! NOPOP
! NOMOPRINT
* xyz 0   1
 C  1.86599  -3.98082  -2.38580
 C  3.05863  -3.42525  -1.92015
 C  2.88134  -2.28145  -1.08077
 C  1.54194  -1.93208  -0.88263
 S  0.65993  -3.04115  -1.74428
 H  4.08330  -3.85698  -2.17250
 C  4.27048  -1.64302  -0.54481
 C  4.70782  -0.00999  -0.58687
 C  4.24494  0.90589  0.74545
 H  3.15579  0.66195  1.02098
 H  4.32670  2.02347  0.46100
 H  5.85882  0.04147  -0.67004
 H  4.24122  0.45524  -1.53252
 H  4.35303  -1.92721  0.59028
 H  5.16293  -2.18057  -1.07989
 C  5.21814  0.57805  2.00963
 C  4.87385  1.42391  3.42401
 C  5.86269  2.76118  3.66070
 H  5.51501  3.62741  2.97844
 H  6.95599  2.47690  3.40543
 H  5.79933  3.08618  4.76987
 H  3.78173  1.79162  3.36891
 H  4.99299  0.70868  4.31909
 H  6.31466  0.80650  1.71771
 H  5.13601  -0.54894  2.26446
 C  0.97907  -0.01761  -0.24025
 C  -0.12220  -0.53694  -0.92245
 C  -1.26962  0.31606  -0.91401
 C  -1.07340  1.51500  -0.22164
 S  0.48749  1.45738  0.33581
 H  0.04106  -0.79774  -2.09280
 C  -2.58575  -0.21000  -1.69076
 C  -4.18426  0.16631  -1.30684
 C  -4.91589  -0.76556  -0.10890
 H  -4.55707  -1.85738  -0.22849
 H  -4.55112  -0.36339  0.91333
 H  -4.23582  1.27112  -0.99393
 H  -4.80255  0.02147  -2.27439
 H  -2.56569  -1.38211  -1.68126
 H  -2.47622  0.10419  -2.81863
 C  -6.54337  -0.71607  -0.16731
 C  -7.27844  0.69792  0.38540
 C  -7.56471  1.80028  -0.85847
 H  -6.78227  2.65046  -0.80190
 H  -8.62819  2.24075  -0.73591
 H  -7.48555  1.26960  -1.88359
 H  -8.28633  0.42458  0.87038
 H  -6.59300  1.19554  1.16480
 H  -6.89199  -0.89827  -1.25543
 H  -6.95679  -1.57813  0.49034
 H  1.75470  -4.82542  -3.01657
 H  -1.77534  2.29695  -0.08226
*
