# ================================================================
# Orca input file made by Matty Jones
# ================================================================
! ZINDO/S 
! NOPOP
! NOMOPRINT
* xyz 0   1
 C  -18.28283  -2.02596  11.48750
 C  -16.89965  -1.83998  11.49761
 C  -16.22895  -2.50497  12.57102
 C  -17.08686  -3.21966  13.41276
 S  -18.60869  -2.99434  12.79331
 H  -16.34181  -1.33772  10.63907
 C  -14.62565  -2.33678  12.66095
 C  -14.16947  -0.70234  12.47139
 C  -12.55103  -0.23112  12.45921
 H  -12.49816  0.79478  12.99536
 H  -11.97060  -1.00354  13.09763
 H  -14.62839  -0.32273  11.48573
 H  -14.66824  -0.13913  13.35007
 H  -14.22563  -2.65827  13.70314
 H  -14.09963  -2.96423  11.84338
 C  -11.82073  -0.09386  11.00485
 C  -12.65460  -0.47323  9.57865
 C  -13.46888  0.80124  8.83598
 H  -12.92008  1.08604  7.85701
 H  -13.49625  1.71537  9.54426
 H  -14.55030  0.47009  8.58841
 H  -11.87367  -0.86766  8.82428
 H  -13.41180  -1.31036  9.80533
 H  -11.47110  1.00563  10.88433
 H  -10.87814  -0.76919  11.01244
 C  19.19466  2.00023  -12.96712
 C  18.04322  1.23948  -12.75889
 C  17.00165  1.93389  -12.06810
 C  17.33230  3.24960  -11.72914
 S  18.87427  3.48125  -12.29404
 H  17.98847  0.12365  -12.98766
 C  15.68033  1.02155  -11.84660
 C  14.05102  1.46623  -11.92472
 C  13.37015  1.82118  -10.43074
 H  14.17956  2.28163  -9.74859
 H  12.52186  2.58738  -10.58606
 H  13.96760  2.40367  -12.59185
 H  13.45864  0.60346  -12.40832
 H  15.77549  0.53812  -10.78019
 H  15.73307  0.13659  -12.61316
 C  12.78516  0.44907  -9.75904
 C  11.18338  0.05318  -10.14060
 C  10.95390  -0.91503  -11.50015
 H  10.18417  -1.74340  -11.25014
 H  11.95630  -1.40075  -11.81099
 H  10.55045  -0.26447  -12.36826
 H  10.60304  1.03581  -10.30094
 H  10.74145  -0.50689  -9.23385
 H  13.44233  -0.44594  -10.08534
 H  12.84672  0.54313  -8.60744
 H  -18.97836  -1.63133  10.79173
 H  -16.82033  -3.78672  14.26775
 H  20.08602  1.69546  -13.45309
 H  16.72462  3.95188  -11.21813
*
