# ================================================================
# Orca input file made by Matty Jones
# ================================================================
! ZINDO/S 
! NOPOP
! NOMOPRINT
* xyz 0   1
 C  -9.23866  -9.56440  -2.11326
 C  -9.79949  -10.75189  -1.64080
 C  -9.26433  -11.19346  -0.39065
 C  -8.27593  -10.35039  0.12666
 S  -8.11838  -9.12030  -0.97446
 H  -10.62757  -11.31849  -2.18667
 C  -9.77796  -12.56387  0.29345
 C  -11.43152  -12.99319  0.35765
 C  -11.92154  -13.94561  -0.95292
 H  -11.73698  -13.32983  -1.91367
 H  -11.22234  -14.86964  -0.97214
 H  -11.61314  -13.58927  1.32455
 H  -12.05652  -12.02938  0.36525
 H  -9.52003  -12.57493  1.42554
 H  -9.23778  -13.45973  -0.20738
 C  -13.46618  -14.46513  -0.92956
 C  -14.30940  -14.11983  -2.35156
 C  -15.90058  -14.66463  -2.35089
 H  -15.96867  -15.66117  -1.76706
 H  -16.24745  -14.83004  -3.44303
 H  -16.57498  -13.87099  -1.84631
 H  -13.75560  -14.62968  -3.22463
 H  -14.31157  -12.97890  -2.50750
 H  -13.49037  -15.61073  -0.77400
 H  -14.03442  -13.96121  -0.05739
 C  16.64304  12.66631  1.00107
 C  15.56061  12.00056  1.57813
 C  14.53002  12.86785  2.05769
 C  14.80004  14.22529  1.85829
 S  16.27888  14.28022  1.10967
 H  15.04208  10.97158  1.32506
 C  13.13556  12.44278  2.75748
 C  11.93447  11.95412  1.65024
 C  11.16682  13.39225  1.12507
 H  10.60861  13.79419  2.05947
 H  12.03615  14.12096  0.88143
 H  12.40685  11.41511  0.75801
 H  11.16561  11.28897  2.17948
 H  12.70130  13.28828  3.41823
 H  13.31874  11.52585  3.45645
 C  10.13123  13.46346  -0.13346
 C  8.46081  13.42650  0.11940
 C  7.76275  11.90695  -0.02015
 H  8.46818  11.11477  0.44118
 H  7.59017  11.66904  -1.14021
 H  6.74833  11.89937  0.53692
 H  7.96976  14.11769  -0.66367
 H  8.24398  13.83310  1.17528
 H  10.34117  14.44997  -0.70944
 H  10.37225  12.57875  -0.84356
 H  -9.47836  -9.05405  -3.01086
 H  -7.73965  -10.47206  1.03286
 H  17.51424  12.23179  0.58179
 H  14.18772  15.04712  2.12894
*
