# ================================================================
# Orca input file made by Matty Jones
# ================================================================
! ZINDO/S 
! NOPOP
! NOMOPRINT
* xyz 0   1
 C  -13.57399  -9.07041  0.73079
 C  -12.61331  -8.24076  1.31102
 C  -12.05819  -8.75097  2.52584
 C  -12.58317  -9.98975  2.90678
 S  -13.69098  -10.38306  1.73696
 H  -12.30738  -7.23825  0.86412
 C  -10.94545  -7.89443  3.32289
 C  -9.55736  -7.34749  2.47946
 C  -9.55055  -5.92454  1.53912
 H  -8.69170  -6.08672  0.77171
 H  -10.54994  -5.91269  0.95874
 H  -9.25807  -8.20691  1.77172
 H  -8.73322  -7.20588  3.27566
 H  -11.43666  -6.93909  3.76700
 H  -10.53330  -8.52857  4.21220
 C  -9.32709  -4.44810  2.19339
 C  -9.27489  -3.18560  1.05411
 C  -7.74007  -2.67340  0.58581
 H  -7.10228  -2.47301  1.53046
 H  -7.83869  -1.69541  -0.02651
 H  -7.23672  -3.48850  -0.06099
 H  -9.81881  -3.55184  0.10444
 H  -9.83921  -2.28301  1.49385
 H  -10.20115  -4.21606  2.91426
 H  -8.33690  -4.42604  2.78696
 C  14.08197  8.10835  -3.14173
 C  13.09787  7.51311  -2.35108
 C  12.45889  8.41077  -1.43994
 C  12.94088  9.72146  -1.51150
 S  14.11572  9.70098  -2.68185
 H  12.90892  6.38983  -2.31958
 C  11.28452  7.95118  -0.43280
 C  9.79167  7.50920  -1.09647
 C  9.49372  6.00100  -1.78594
 H  10.49027  5.75264  -2.31535
 H  8.70058  6.21931  -2.61366
 H  9.55266  8.30242  -1.90266
 H  9.02455  7.62004  -0.23395
 H  11.06213  8.79606  0.33604
 H  11.65336  7.02614  0.17666
 C  8.99403  4.64942  -1.03046
 C  8.69972  3.42878  -2.18028
 C  7.12052  3.29901  -2.74967
 H  6.92746  2.20783  -3.08578
 H  6.97555  4.01060  -3.65093
 H  6.38073  3.58238  -1.90769
 H  9.03392  2.42012  -1.74447
 H  9.31282  3.68884  -3.11673
 H  8.02262  4.84254  -0.44150
 H  9.81206  4.26990  -0.30968
 H  -14.11479  -8.89776  -0.16438
 H  -12.32677  -10.55837  3.76383
 H  14.68141  7.64083  -3.88045
 H  12.62208  10.55384  -0.93781
*
