# ================================================================
# Orca input file made by Matty Jones
# ================================================================
! ZINDO/S 
! NOPOP
! NOMOPRINT
* xyz 0   1
 C  21.91942  0.98658  8.45572
 C  21.61966  -0.37577  8.41052
 C  21.91554  -1.07913  9.61965
 C  22.45164  -0.26808  10.62469
 S  22.53025  1.25517  9.97356
 H  21.18773  -0.90532  7.48360
 C  21.60879  -2.66557  9.71221
 C  21.25927  -3.55736  11.12097
 C  19.72585  -3.73562  11.81974
 H  19.87018  -3.84136  12.96215
 H  19.12296  -2.77456  11.60697
 H  21.51819  -4.65077  10.78130
 H  21.99549  -3.31811  11.94406
 H  22.53725  -3.22024  9.25389
 H  20.70109  -2.89895  9.01495
 C  18.93446  -5.03569  11.24276
 C  19.31783  -6.51680  11.97146
 C  18.33328  -6.99778  13.24746
 H  18.86297  -6.76814  14.25030
 H  18.13887  -8.13685  13.16557
 H  17.32587  -6.43133  13.19992
 H  20.39922  -6.44607  12.36592
 H  19.26378  -7.32979  11.15536
 H  17.79634  -4.87329  11.38215
 H  19.15112  -5.14446  10.11160
 C  -21.63318  1.19247  -14.65924
 C  -21.04149  1.55970  -13.44972
 C  -21.82122  2.47086  -12.67121
 C  -23.03473  2.82490  -13.26902
 S  -23.07847  2.00349  -14.70909
 H  -20.24546  0.94408  -12.93238
 C  -21.13636  2.90476  -11.28342
 C  -19.52908  3.37385  -11.60686
 C  -18.47428  3.68756  -10.34094
 H  -17.40957  3.71984  -10.80724
 H  -18.51966  2.76598  -9.63842
 H  -19.01524  2.56104  -12.24126
 H  -19.60817  4.34140  -12.23629
 H  -21.69442  3.80718  -10.81663
 H  -21.13173  2.02585  -10.53065
 C  -18.69303  5.04620  -9.48920
 C  -19.53648  4.72561  -8.05776
 C  -21.20856  4.76984  -8.19838
 H  -21.51409  5.55913  -8.98729
 H  -21.66472  5.05041  -7.17179
 H  -21.59548  3.72716  -8.51733
 H  -19.23504  3.67880  -7.67892
 H  -19.21842  5.51581  -7.28063
 H  -19.29467  5.81752  -10.10340
 H  -17.67108  5.50643  -9.20667
 H  21.78493  1.69928  7.68268
 H  22.74614  -0.56474  11.59878
 H  -21.24123  0.53393  -15.39157
 H  -23.77226  3.48092  -12.88265
*
