# ================================================================
# Orca input file made by Matty Jones
# ================================================================
! ZINDO/S 
! NOPOP
! NOMOPRINT
* xyz 0   1
 C  -7.88517  -16.39991  0.77006
 C  -6.50198  -16.21393  0.78016
 C  -5.83128  -16.87893  1.85358
 C  -6.68920  -17.59361  2.69531
 S  -8.21102  -17.36830  2.07587
 H  -5.94414  -15.71167  -0.07837
 C  -4.22798  -16.71073  1.94350
 C  -3.77180  -15.07629  1.75395
 C  -2.15337  -14.60508  1.74176
 H  -2.10050  -13.57917  2.27792
 H  -1.57293  -15.37749  2.38018
 H  -4.23073  -14.69668  0.76829
 H  -4.27057  -14.51308  2.63263
 H  -3.82796  -17.03222  2.98570
 H  -3.70196  -17.33818  1.12593
 C  -1.42306  -14.46782  0.28740
 C  -2.25694  -14.84718  -1.13880
 C  -3.07121  -13.57271  -1.88146
 H  -2.52242  -13.28791  -2.86044
 H  -3.09858  -12.65858  -1.17319
 H  -4.15263  -13.90387  -2.12904
 H  -1.47601  -15.24162  -1.89317
 H  -3.01413  -15.68431  -0.91211
 H  -1.07344  -13.36832  0.16689
 H  -0.48048  -15.14314  0.29499
 C  8.37595  15.87278  -2.00419
 C  7.03258  16.06502  -1.67817
 C  6.80545  16.38505  -0.30330
 C  7.97539  16.44581  0.46016
 S  9.21186  16.10518  -0.59127
 H  6.18280  15.97652  -2.43551
 C  5.44407  16.69522  0.54864
 C  3.93362  15.93229  0.94627
 C  2.34291  15.83015  0.34521
 H  1.66560  16.12986  1.24486
 H  2.26495  16.67903  -0.44231
 H  4.25316  14.81742  1.00719
 H  3.76071  16.31705  2.02949
 H  5.01945  17.68813  0.05809
 H  5.80390  17.00173  1.62330
 C  1.68994  14.48768  -0.29895
 C  1.69502  14.41180  -1.97667
 C  0.48476  13.38921  -2.54732
 H  0.50635  12.39185  -1.96301
 H  0.64961  13.19168  -3.67471
 H  -0.54120  13.90591  -2.39284
 H  1.52818  15.46579  -2.40666
 H  2.71470  14.00333  -2.32342
 H  2.27037  13.56158  0.08922
 H  0.59025  14.39317  0.05405
 H  -8.58070  -16.00528  0.07428
 H  -6.42266  -18.16067  3.55030
 H  8.77721  15.62951  -2.95467
 H  8.05524  16.66393  1.49440
*
