# ================================================================
# Orca input file made by Matty Jones
# ================================================================
! ZINDO/S 
! NOPOP
! NOMOPRINT
* xyz 0   1
 C  -12.58921  -10.40630  -0.09588
 C  -12.88898  -11.76865  -0.14108
 C  -12.59310  -12.47200  1.06805
 C  -12.05699  -11.66095  2.07309
 S  -11.97838  -10.13771  1.42196
 H  -13.32090  -12.29820  -1.06799
 C  -12.89984  -14.05845  1.16061
 C  -13.24936  -14.95024  2.56937
 C  -14.78278  -15.12849  3.26814
 H  -14.63845  -15.23424  4.41055
 H  -15.38567  -14.16744  3.05538
 H  -12.99044  -16.04365  2.22971
 H  -12.51314  -14.71099  3.39246
 H  -11.97138  -14.61312  0.70229
 H  -13.80754  -14.29183  0.46335
 C  -15.57417  -16.42856  2.69116
 C  -15.19080  -17.90967  3.41987
 C  -16.17536  -18.39066  4.69586
 H  -15.64566  -18.16102  5.69870
 H  -16.36976  -19.52973  4.61397
 H  -17.18276  -17.82421  4.64832
 H  -14.10941  -17.83895  3.81432
 H  -15.24486  -18.72266  2.60376
 H  -16.71229  -16.26617  2.83056
 H  -15.35751  -16.53733  1.56000
 C  12.15154  11.61837  -4.78046
 C  12.76362  12.34713  -3.75959
 C  11.92131  13.33611  -3.16235
 C  10.63764  13.38854  -3.71441
 S  10.61273  12.22487  -4.89580
 H  13.84684  12.19078  -3.43189
 C  12.35822  14.34128  -1.97479
 C  13.54652  15.45506  -2.41830
 C  14.00040  16.61894  -1.27816
 H  13.11850  16.71699  -0.53114
 H  14.10785  17.62723  -1.83749
 H  14.48550  14.86289  -2.72384
 H  13.14148  16.02647  -3.33764
 H  11.46776  14.89195  -1.47823
 H  12.84707  13.70285  -1.12081
 C  15.35666  16.30287  -0.44479
 C  16.72678  16.74987  -1.33364
 C  17.25114  15.49853  -2.33065
 H  18.40579  15.43644  -2.28893
 H  16.91187  15.70853  -3.41728
 H  16.79895  14.49495  -1.97283
 H  16.47316  17.66196  -1.98887
 H  17.57052  17.02202  -0.60029
 H  15.42316  15.18200  -0.18177
 H  15.36367  16.91840  0.53514
 H  -12.72370  -9.69360  -0.86891
 H  -11.76250  -11.95762  3.04718
 H  12.58009  10.84105  -5.35988
 H  9.84618  14.03640  -3.43608
*
