# ================================================================
# Orca input file made by Matty Jones
# ================================================================
! ZINDO/S 
! NOPOP
! NOMOPRINT
* xyz 0   1
 C  -12.60827  -9.93627  4.66123
 C  -11.22315  -9.76771  4.69181
 C  -10.59528  -10.30458  5.85879
 C  -11.48913  -10.90006  6.75419
 S  -12.98816  -10.73333  6.06461
 H  -10.64164  -9.35829  3.79960
 C  -8.99637  -10.16651  5.96354
 C  -8.52322  -8.55871  5.60681
 C  -6.88948  -8.15711  5.61909
 H  -6.82962  -7.07159  6.02949
 H  -6.36847  -8.85679  6.38042
 H  -8.92350  -8.31114  4.55793
 H  -9.05218  -7.88442  6.38033
 H  -8.62313  -10.36047  7.04581
 H  -8.45944  -10.87848  5.23587
 C  -6.06181  -8.19755  4.21073
 C  -6.87684  -8.13623  2.72587
 C  -7.32097  -9.61387  2.05607
 H  -6.91640  -9.67650  0.97229
 H  -8.47557  -9.69597  2.04210
 H  -6.87864  -10.47803  2.68408
 H  -7.81819  -7.48519  2.84577
 H  -6.16328  -7.62047  1.97516
 H  -5.44634  -9.18079  4.19355
 H  -5.31777  -7.30881  4.20510
 C  12.40715  11.07149  -5.94884
 C  11.42305  10.47625  -5.15819
 C  10.78407  11.37391  -4.24705
 C  11.26606  12.68460  -4.31861
 S  12.44090  12.66413  -5.48897
 H  11.23410  9.35297  -5.12669
 C  9.60970  10.91432  -3.23991
 C  8.11685  10.47235  -3.90358
 C  7.81890  8.96415  -4.59305
 H  8.81545  8.71578  -5.12246
 H  7.02576  9.18246  -5.42077
 H  7.87784  11.26557  -4.70977
 H  7.34974  10.58318  -3.04106
 H  9.38731  11.75921  -2.47107
 H  9.97854  9.98928  -2.63045
 C  7.31921  7.61256  -3.83758
 C  7.02490  6.39192  -4.98739
 C  5.44570  6.26215  -5.55678
 H  5.25264  5.17097  -5.89289
 H  5.30073  6.97374  -6.45804
 H  4.70591  6.54552  -4.71480
 H  7.35910  5.38327  -4.55158
 H  7.63800  6.65198  -5.92384
 H  6.34780  7.80569  -3.24861
 H  8.13724  7.23304  -3.11679
 H  -13.27648  -9.62116  3.90110
 H  -11.25716  -11.36144  7.67990
 H  13.00659  10.60398  -6.68756
 H  10.94726  13.51698  -3.74492
*
