# ================================================================
# Orca input file made by Matty Jones
# ================================================================
! ZINDO/S 
! NOPOP
! NOMOPRINT
* xyz 0   1
 C  9.95217  -9.22570  31.74183
 C  9.95249  -10.36167  32.55268
 C  10.03102  -10.07998  33.95224
 C  10.09303  -8.71470  34.24800
 S  10.04806  -7.93884  32.78293
 H  10.30550  -11.36241  32.11005
 C  9.99739  -11.44989  34.82599
 C  8.64494  -12.36176  34.15832
 C  7.88837  -13.89484  34.31714
 H  6.75620  -13.71335  34.43734
 H  8.30563  -14.38866  35.26954
 H  8.85669  -12.39916  33.02651
 H  7.76965  -11.62761  34.35390
 H  9.80369  -11.24120  35.94156
 H  10.95717  -12.07262  34.68438
 C  8.14769  -14.87241  33.02729
 C  7.36878  -16.38140  33.00656
 C  5.86906  -16.47129  32.23724
 H  5.04052  -16.61881  33.03147
 H  5.86910  -17.37378  31.51101
 H  5.67115  -15.49876  31.64413
 H  7.22042  -16.70846  34.10175
 H  8.07365  -17.12472  32.47668
 H  9.28216  -15.08126  32.94000
 H  7.80356  -14.31774  32.06950
 C  -4.30171  12.54853  -34.94683
 C  -5.52759  12.03236  -35.36956
 C  -6.65737  12.57043  -34.67794
 C  -6.32191  13.51623  -33.70417
 S  -4.66837  13.63531  -33.74952
 H  -5.87757  11.81098  -36.49614
 C  -8.16174  12.08834  -35.05692
 C  -9.40171  11.67177  -33.93804
 C  -9.20624  11.60610  -32.25610
 H  -10.07480  10.98011  -31.81961
 H  -8.20610  11.08030  -32.02391
 H  -10.27071  12.40089  -34.14667
 H  -9.73648  10.60426  -34.23821
 H  -8.05536  11.12788  -35.71475
 H  -8.64341  12.92019  -35.72506
 C  -9.23359  13.09987  -31.61963
 C  -10.68689  13.85975  -31.24754
 C  -11.16844  14.94876  -32.44649
 H  -12.32175  14.95134  -32.53375
 H  -10.71068  14.63681  -33.46291
 H  -10.80320  16.01365  -32.18083
 H  -11.46191  13.01556  -31.16636
 H  -10.56707  14.38361  -30.23443
 H  -8.54236  13.16163  -30.70020
 H  -8.83335  13.73330  -32.50005
 H  9.90135  -9.19263  30.68357
 H  10.15567  -8.26897  35.20769
 H  -3.33922  12.29848  -35.31384
 H  -6.98554  14.04615  -33.06983
*
