# ================================================================
# Orca input file made by Matty Jones
# ================================================================
! ZINDO/S 
! NOPOP
! NOMOPRINT
* xyz 0   1
 C  -12.57210  -9.84391  4.59104
 C  -11.18892  -9.65793  4.60115
 C  -10.51822  -10.32292  5.67456
 C  -11.37613  -11.03761  6.51630
 S  -12.89796  -10.81229  5.89685
 H  -10.63108  -9.15567  3.74261
 C  -8.91492  -10.15473  5.76449
 C  -8.45874  -8.52029  5.57493
 C  -6.84030  -8.04907  5.56275
 H  -6.78743  -7.02316  6.09890
 H  -6.25987  -8.82149  6.20117
 H  -8.91766  -8.14068  4.58927
 H  -8.95751  -7.95707  6.45361
 H  -8.51490  -10.47622  6.80668
 H  -8.38890  -10.78218  4.94692
 C  -6.11000  -7.91181  4.10839
 C  -6.94387  -8.29118  2.68219
 C  -7.75814  -7.01671  1.93952
 H  -7.20935  -6.73191  0.96055
 H  -7.78552  -6.10258  2.64780
 H  -8.83957  -7.34786  1.69194
 H  -6.16294  -8.68561  1.92782
 H  -7.70107  -9.12831  2.90887
 H  -5.76037  -6.81232  3.98787
 H  -5.16741  -8.58714  4.11598
 C  12.29313  10.85624  -6.02459
 C  11.42074  10.23708  -5.12822
 C  10.71896  11.14482  -4.27513
 C  11.03882  12.48754  -4.49900
 S  12.15736  12.48103  -5.72344
 H  11.80822  9.27709  -4.58391
 C  9.65930  10.57719  -3.18869
 C  8.51441  9.56529  -3.98657
 C  7.17063  8.60544  -3.53739
 H  6.88141  8.92300  -2.46372
 H  6.30484  8.87970  -4.25282
 H  9.21821  8.79056  -4.44519
 H  8.08245  10.26219  -4.80294
 H  9.06978  11.43809  -2.68393
 H  10.19451  9.94808  -2.37434
 C  7.39518  6.98713  -3.56979
 C  7.20602  6.26743  -5.10505
 C  5.71123  5.67803  -5.60262
 H  5.85648  4.63746  -6.09019
 H  5.25724  6.40425  -6.38228
 H  5.00359  5.58772  -4.69387
 H  7.94834  5.38597  -5.15579
 H  7.48670  7.06768  -5.88568
 H  6.62548  6.48171  -2.87105
 H  8.45685  6.73455  -3.19447
 H  -13.26763  -9.44928  3.89526
 H  -11.10960  -11.60467  7.37129
 H  12.91201  10.38674  -6.74581
 H  10.64817  13.33261  -3.99220
*
