# ================================================================
# Orca input file made by Matty Jones
# ================================================================
! ZINDO/S 
! NOPOP
! NOMOPRINT
* xyz 0   1
 C  20.64363  2.03715  5.81225
 C  20.08279  0.84966  6.28471
 C  20.61795  0.40810  7.53486
 C  21.60635  1.25116  8.05217
 S  21.76390  2.48126  6.95104
 H  19.25471  0.28307  5.73883
 C  20.10432  -0.96232  8.21896
 C  18.45076  -1.39164  8.28316
 C  17.96075  -2.34405  6.97259
 H  18.14530  -1.72827  6.01184
 H  18.65994  -3.26808  6.95336
 H  18.26914  -1.98771  9.25005
 H  17.82576  -0.42783  8.29076
 H  20.36226  -0.97337  9.35104
 H  20.64451  -1.85818  7.71812
 C  16.41610  -2.86357  6.99595
 C  15.57288  -2.51827  5.57395
 C  13.98170  -3.06308  5.57462
 H  13.91362  -4.05961  6.15845
 H  13.63483  -3.22848  4.48248
 H  13.30731  -2.26944  6.07919
 H  16.12668  -3.02813  4.70087
 H  15.57072  -1.37734  5.41801
 H  16.39192  -4.00917  7.15150
 H  15.84786  -2.35966  7.86811
 C  -19.44000  -1.16236  -10.73314
 C  -18.83215  -0.72382  -9.55581
 C  -19.65071  0.13930  -8.76256
 C  -20.91128  0.38354  -9.31631
 S  -20.94622  -0.46928  -10.73825
 H  -17.90968  -1.22076  -9.07616
 C  -18.97176  0.72074  -7.42889
 C  -17.42827  1.29539  -7.76948
 C  -16.37939  1.88918  -6.59823
 H  -16.48943  3.04272  -6.57971
 H  -15.30025  1.63744  -6.93839
 H  -16.84179  0.43940  -8.27779
 H  -17.58688  2.14832  -8.53451
 H  -19.63061  1.56321  -6.96899
 H  -18.91198  -0.13407  -6.64045
 C  -16.62338  1.29551  -5.10926
 C  -17.77401  2.17276  -4.25028
 C  -17.09763  3.52086  -3.50985
 H  -16.33473  3.18030  -2.71017
 H  -17.93638  4.14369  -3.01183
 H  -16.56126  4.16285  -4.30956
 H  -18.60458  2.51599  -4.96946
 H  -18.22058  1.48937  -3.43741
 H  -15.62847  1.31952  -4.51732
 H  -16.98189  0.19702  -5.17524
 H  20.40393  2.54751  4.91465
 H  22.14263  1.12950  8.95837
 H  -19.02600  -1.80335  -11.46890
 H  -21.68295  0.98735  -8.91192
*
