# ================================================================
# Orca input file made by Matty Jones
# ================================================================
! ZINDO/S 
! NOPOP
! NOMOPRINT
* xyz 0   1
 C  -7.06768  30.88990  -4.84708
 C  -7.62851  29.70242  -4.37462
 C  -7.09336  29.26085  -3.12447
 C  -6.10496  30.10391  -2.60716
 S  -5.94741  31.33401  -3.70828
 H  -8.45659  29.13582  -4.92049
 C  -7.60698  27.89043  -2.44037
 C  -9.26054  27.46111  -2.37617
 C  -9.75056  26.50870  -3.68674
 H  -9.56600  27.12448  -4.64749
 H  -9.05136  25.58467  -3.70596
 H  -9.44216  26.86504  -1.40927
 H  -9.88554  28.42492  -2.36857
 H  -7.34905  27.87938  -1.30829
 H  -7.06680  26.99457  -2.94121
 C  -11.29520  25.98918  -3.66338
 C  -12.13842  26.33448  -5.08538
 C  -13.72960  25.78967  -5.08471
 H  -13.79769  24.79314  -4.50088
 H  -14.07648  25.62427  -6.17685
 H  -14.40400  26.58331  -4.58013
 H  -11.58463  25.82462  -5.95846
 H  -12.14059  27.47541  -5.24132
 H  -11.31939  24.84358  -3.50782
 H  -11.86344  26.49310  -2.79121
 C  14.00596  -27.15426  2.46225
 C  12.66259  -26.96202  2.78827
 C  12.43546  -26.64199  4.16314
 C  13.60539  -26.58123  4.92661
 S  14.84187  -26.92186  3.87517
 H  11.81281  -27.05053  2.03094
 C  11.07407  -26.33182  5.01508
 C  9.56362  -27.09476  5.41272
 C  7.97292  -27.19690  4.81165
 H  7.29560  -26.89718  5.71130
 H  7.89496  -26.34802  4.02413
 H  9.88317  -28.20962  5.47364
 H  9.39072  -26.70999  6.49594
 H  10.64945  -25.33891  4.52454
 H  11.43390  -26.02531  6.08975
 C  7.31995  -28.53936  4.16750
 C  7.32502  -28.61525  2.48978
 C  6.11477  -29.63783  1.91912
 H  6.13636  -30.63520  2.50344
 H  6.27961  -29.83536  0.79174
 H  5.08881  -29.12113  2.07361
 H  7.15818  -27.56125  2.05978
 H  8.34471  -29.02371  2.14303
 H  7.90038  -29.46546  4.55567
 H  6.22026  -28.63388  4.52050
 H  -7.30738  31.40026  -5.74468
 H  -5.56867  29.98225  -1.70096
 H  14.40722  -27.39754  1.51178
 H  13.68524  -26.36311  5.96085
*
