# ================================================================
# Orca input file made by Matty Jones
# ================================================================
! ZINDO/S 
! NOPOP
! NOMOPRINT
* xyz 0   1
 C  -12.35686  -3.70918  9.09249
 C  -13.12476  -4.67553  9.74393
 C  -12.35941  -5.61729  10.49997
 C  -10.98021  -5.39345  10.44524
 S  -10.78305  -4.06085  9.47791
 H  -14.26490  -4.71869  9.69729
 C  -12.96204  -6.86742  11.35717
 C  -14.25528  -6.82116  12.48223
 C  -14.58792  -8.31210  13.27788
 H  -14.76919  -8.01453  14.38537
 H  -13.58513  -8.89238  13.22262
 H  -15.20607  -6.51602  11.91279
 H  -14.00197  -6.04230  13.28508
 H  -12.07866  -7.32625  11.98583
 H  -13.29007  -7.67800  10.60003
 C  -15.77219  -9.35925  12.86774
 C  -15.78954  -10.84613  13.70511
 C  -14.42964  -11.21589  14.62880
 H  -13.49443  -11.20388  13.94692
 H  -14.55494  -12.27228  15.08604
 H  -14.30855  -10.43875  15.47557
 H  -15.93288  -11.68654  12.93059
 H  -16.69382  -10.82804  14.42155
 H  -15.68696  -9.60997  11.74354
 H  -16.79858  -8.86097  13.06174
 C  18.96642  8.09082  -14.03049
 C  17.68943  7.56488  -13.82905
 C  16.84747  8.37531  -13.00528
 C  17.46274  9.54709  -12.55398
 S  18.99454  9.51916  -13.18899
 H  17.32986  6.58403  -14.29210
 C  15.36577  7.79999  -12.70476
 C  13.94914  8.74274  -12.67409
 C  12.58382  7.75175  -12.44498
 H  11.69746  8.28987  -12.95948
 H  12.78233  6.75901  -13.00581
 H  13.84667  9.30372  -13.66951
 H  13.95616  9.46767  -11.79566
 H  15.37633  7.26895  -11.65955
 H  15.13209  6.98112  -13.50332
 C  12.17528  7.42614  -10.90489
 C  10.84304  6.38812  -10.78231
 C  9.35834  7.17689  -10.75057
 H  8.55197  6.45249  -10.34475
 H  9.07799  7.50740  -11.82361
 H  9.42920  8.10428  -10.06260
 H  10.95134  5.77991  -9.80945
 H  10.85399  5.67316  -11.68583
 H  13.06380  6.91746  -10.36705
 H  11.91656  8.40678  -10.35127
 H  -12.70614  -2.91738  8.48039
 H  -10.21990  -5.95742  10.92216
 H  19.75253  7.66657  -14.60113
 H  17.03884  10.29634  -11.93549
*
