# ================================================================
# Orca input file made by Matty Jones
# ================================================================
! ZINDO/S 
! NOPOP
! NOMOPRINT
* xyz 0   1
 C  11.84020  24.17762  -15.74027
 C  11.92263  23.04157  -14.93374
 C  12.04749  23.32439  -13.53779
 C  12.06373  24.69066  -13.24054
 S  11.92471  25.46595  -14.70000
 H  12.33528  22.05803  -15.38232
 C  12.12200  21.98792  -12.63938
 C  10.76071  21.03324  -13.23440
 C  9.96638  19.51813  -13.07849
 H  8.83334  19.73245  -13.01784
 H  10.31912  19.03321  -12.09463
 H  11.00612  20.95483  -14.35873
 H  9.88769  21.78013  -13.08092
 H  11.99458  22.18782  -11.51495
 H  13.09939  21.40103  -12.85059
 C  10.25981  18.51105  -14.33377
 C  9.17092  17.22255  -14.45483
 C  9.59605  15.87606  -13.55205
 H  8.94086  14.97817  -13.87531
 H  9.42095  16.10062  -12.42988
 H  10.71191  15.62672  -13.72972
 H  9.11191  16.90928  -15.56347
 H  8.13465  17.58711  -14.10702
 H  11.32465  18.07415  -14.24319
 H  10.18373  19.09842  -15.32865
 C  -13.00911  -24.44707  12.18849
 C  -12.24227  -23.51420  12.88819
 C  -13.01151  -22.52815  13.58119
 C  -14.39273  -22.68320  13.42794
 S  -14.58680  -24.01343  12.45672
 H  -11.10438  -23.55676  12.95731
 C  -12.31928  -21.36253  14.46693
 C  -10.92804  -20.53784  13.97242
 C  -10.43592  -19.31997  15.05518
 H  -10.74468  -19.64879  16.12016
 H  -11.01042  -18.35511  14.78233
 H  -10.07365  -21.30518  13.88980
 H  -11.12827  -20.05493  12.94958
 H  -13.09452  -20.50026  14.61994
 H  -12.03833  -21.79844  15.50740
 C  -8.83273  -19.03370  15.02357
 C  -8.25143  -18.35422  13.59155
 C  -8.24379  -16.67868  13.49629
 H  -7.42681  -16.25561  14.19784
 H  -9.27988  -16.27023  13.80913
 H  -8.01670  -16.36527  12.40466
 H  -7.16365  -18.71743  13.45526
 H  -8.89491  -18.75763  12.72324
 H  -8.26060  -20.02288  15.20382
 H  -8.56660  -18.29840  15.87866
 H  11.74388  24.20997  -16.79539
 H  12.14739  25.13732  -12.28288
 H  -12.65712  -25.26116  11.60799
 H  -15.15594  -22.07736  13.84516
*
