# ================================================================
# Orca input file made by Matty Jones
# ================================================================
! ZINDO/S 
! NOPOP
! NOMOPRINT
* xyz 0   1
 C  -13.54494  -3.72820  0.93350
 C  -14.10578  -4.91569  1.40596
 C  -13.57062  -5.35726  2.65611
 C  -12.58222  -4.51420  3.17342
 S  -12.42467  -3.28410  2.07230
 H  -14.93386  -5.48229  0.86009
 C  -14.08425  -6.72768  3.34021
 C  -15.73780  -7.15700  3.40441
 C  -16.22782  -8.10941  2.09384
 H  -16.04327  -7.49363  1.13309
 H  -15.52863  -9.03344  2.07462
 H  -15.91943  -7.75307  4.37131
 H  -16.36280  -6.19319  3.41201
 H  -13.82631  -6.73873  4.47230
 H  -13.54406  -7.62353  2.83938
 C  -17.77247  -8.62893  2.11720
 C  -18.61568  -8.28363  0.69520
 C  -20.20687  -8.82843  0.69587
 H  -20.27495  -9.82497  1.27970
 H  -20.55374  -8.99384  -0.39627
 H  -20.88126  -8.03480  1.20045
 H  -18.06189  -8.79349  -0.17787
 H  -18.61785  -7.14270  0.53926
 H  -17.79665  -9.77453  2.27276
 H  -18.34071  -8.12501  2.98937
 C  20.19723  6.76890  -4.50829
 C  19.30442  5.78311  -4.08520
 C  18.24584  6.27069  -3.25699
 C  18.30305  7.64844  -3.02493
 S  19.64155  8.18331  -3.84515
 H  19.51537  4.68609  -3.73136
 C  17.16475  5.18636  -2.74197
 C  15.53442  5.39839  -2.31316
 C  14.77126  6.86854  -1.99635
 H  15.34306  7.73428  -2.49135
 H  13.69107  6.83480  -2.39821
 H  14.93290  4.94819  -3.19925
 H  15.36562  4.71484  -1.39461
 H  17.62370  4.67830  -1.78999
 H  17.10221  4.34833  -3.56252
 C  14.78275  6.98663  -0.37124
 C  14.07117  8.32947  0.31739
 C  13.30961  9.40558  -0.72166
 H  12.76786  8.81369  -1.55683
 H  14.10299  10.10301  -1.19553
 H  12.52855  10.04396  -0.15978
 H  13.36284  7.94449  1.12923
 H  14.94508  8.84590  0.82653
 H  14.22062  6.06647  0.06527
 H  15.87905  6.93388  0.00201
 H  -13.78464  -3.21785  0.03590
 H  -12.04594  -4.63586  4.07962
 H  21.05062  6.64044  -5.12378
 H  17.63151  8.22935  -2.44599
*
