# ================================================================
# Orca input file made by Matty Jones
# ================================================================
! ZINDO/S 
! NOPOP
! NOMOPRINT
* xyz 0   1
 C  -2.13351  2.80685  -2.63686
 C  -3.02278  1.77939  -2.31842
 C  -2.63289  1.00019  -1.18480
 C  -1.42967  1.41446  -0.60518
 S  -0.91873  2.70488  -1.51302
 H  -3.98132  1.56339  -2.90183
 C  -3.59731  -0.22084  -0.72387
 C  -3.25086  -1.60082  0.23163
 C  -2.58370  -3.08474  -0.24679
 H  -1.88539  -2.87547  -1.14427
 H  -1.94153  -3.47247  0.63607
 H  -4.34769  -1.92893  0.51656
 H  -2.78857  -1.29183  1.22176
 H  -4.03557  -0.69967  -1.70218
 H  -4.49832  0.26464  -0.15473
 C  -3.67453  -4.22325  -0.65978
 C  -4.36747  -5.09291  0.61935
 C  -5.80934  -4.42354  1.17811
 H  -5.57489  -3.51903  1.85989
 H  -6.39315  -5.22130  1.78018
 H  -6.44696  -4.07752  0.27658
 H  -4.58502  -6.16303  0.25322
 H  -3.61975  -5.12587  1.49370
 H  -4.53411  -3.73205  -1.25665
 H  -3.15434  -5.00321  -1.34125
 C  -0.44914  0.75966  0.52908
 C  0.93404  0.94564  0.53919
 C  1.60474  0.28065  1.61260
 C  0.74683  -0.43404  2.45434
 S  -0.77500  -0.20872  1.83489
 H  1.49188  1.44790  -0.31935
 C  3.20804  0.44884  1.70253
 C  3.66422  2.08329  1.51298
 C  5.28266  2.55450  1.50079
 H  5.33553  3.58041  2.03694
 H  5.86309  1.78208  2.13921
 H  3.20530  2.46290  0.52732
 H  3.16545  2.64650  2.39165
 H  3.60806  0.12735  2.74472
 H  3.73406  -0.17861  0.88496
 C  6.01296  2.69176  0.04643
 C  5.17909  2.31239  -1.37977
 C  4.36482  3.58687  -2.12244
 H  4.91361  3.87166  -3.10141
 H  4.33744  4.50099  -1.41416
 H  3.28339  3.25571  -2.37001
 H  5.96002  1.91796  -2.13414
 H  4.42189  1.47526  -1.15309
 H  6.36259  3.79125  -0.07409
 H  6.95555  2.01643  0.05402
 H  -2.21711  3.50515  -3.42995
 H  1.01336  -1.00109  3.30933
*
