# ================================================================
# Orca input file made by Matty Jones
# ================================================================
! ZINDO/S 
! NOPOP
! NOMOPRINT
* xyz 0   1
 C  13.01798  -11.08776  32.25587
 C  11.74099  -11.61370  32.45731
 C  10.89904  -10.80327  33.28108
 C  11.51431  -9.63149  33.73238
 S  13.04611  -9.65941  33.09737
 H  11.38142  -12.59455  31.99426
 C  9.41734  -11.37858  33.58160
 C  8.00070  -10.43584  33.61228
 C  6.63539  -11.42682  33.84138
 H  5.74903  -10.88870  33.32688
 H  6.83390  -12.41957  33.28056
 H  7.89824  -9.87486  32.61685
 H  8.00773  -9.71090  34.49070
 H  9.42790  -11.90962  34.62681
 H  9.18366  -12.19746  32.78304
 C  6.22685  -11.75244  35.38147
 C  4.89460  -12.79046  35.50405
 C  3.40991  -12.00169  35.53579
 H  2.60354  -12.72609  35.94161
 H  3.12956  -11.67118  34.46275
 H  3.48077  -11.07430  36.22377
 H  5.00291  -13.39867  36.47691
 H  4.90556  -13.50541  34.60053
 H  7.11537  -12.26111  35.91931
 H  5.96813  -10.77180  35.93510
 C  -3.61347  11.68673  -35.44702
 C  -4.92776  11.98657  -35.08558
 C  -5.09993  12.27411  -33.69564
 C  -3.91562  12.20094  -32.95580
 S  -2.73440  11.79012  -34.04500
 H  -5.79307  12.03460  -35.82956
 C  -6.44293  12.66664  -32.85772
 C  -7.97985  11.93647  -32.53237
 C  -9.55118  11.82408  -33.20179
 H  -10.29836  12.04067  -32.34364
 H  -9.64506  12.66286  -33.98994
 H  -7.67541  10.82738  -32.38383
 H  -8.21629  12.38312  -31.48178
 H  -6.08335  12.90630  -31.76511
 H  -6.79522  13.69220  -33.31109
 C  -9.90666  10.38390  -33.86945
 C  -10.28681  10.30916  -35.50888
 C  -11.93459  10.09616  -35.79132
 H  -12.51927  11.02157  -35.42019
 H  -12.29602  9.15343  -35.22371
 H  -12.10826  9.95037  -36.92612
 H  -9.96523  11.29887  -36.00446
 H  -9.71182  9.43264  -35.98383
 H  -9.01487  9.66029  -33.71247
 H  -10.81924  9.94449  -33.29909
 H  13.80410  -11.51201  31.68523
 H  11.09041  -8.88223  34.35087
 H  -3.25324  11.44407  -36.41394
 H  -3.79755  12.37220  -31.91641
*
