# ================================================================
# Orca input file made by Matty Jones
# ================================================================
! ZINDO/S 
! NOPOP
! NOMOPRINT
* xyz 0   1
 C  6.11606  -2.04931  -3.44473
 C  4.89018  -2.56547  -3.86746
 C  3.76040  -2.02740  -3.17584
 C  4.09586  -1.08160  -2.20207
 S  5.74940  -0.96253  -2.24742
 H  4.54020  -2.78686  -4.99404
 C  2.25603  -2.50949  -3.55482
 C  1.01606  -2.92606  -2.43594
 C  1.21153  -2.99173  -0.75400
 H  0.34297  -3.61772  -0.31751
 H  2.21167  -3.51754  -0.52181
 H  0.14706  -2.19694  -2.64457
 H  0.68129  -3.99357  -2.73611
 H  2.36241  -3.46995  -4.21265
 H  1.77437  -1.67765  -4.22296
 C  1.18418  -1.49796  -0.11753
 C  -0.26912  -0.73808  0.25456
 C  -0.75067  0.35093  -0.94439
 H  -1.90398  0.35351  -1.03165
 H  -0.29291  0.03898  -1.96081
 H  -0.38543  1.41581  -0.67873
 H  -1.04414  -1.58227  0.33574
 H  -0.14930  -0.21422  1.26767
 H  1.87541  -1.43620  0.80190
 H  1.58442  -0.86453  -0.99795
 C  1.83177  3.50770  0.49279
 C  0.84767  2.91245  1.28344
 C  0.20870  3.81011  2.19457
 C  0.69068  5.12081  2.12302
 S  1.86553  5.10033  0.95266
 H  0.65872  1.78917  1.31493
 C  -0.96568  3.35052  3.20172
 C  -2.45853  2.90855  2.53804
 C  -2.75648  1.40035  1.84858
 H  -1.75993  1.15199  1.31916
 H  -3.54962  1.61866  1.02086
 H  -2.69754  3.70177  1.73185
 H  -3.22564  3.01938  3.40056
 H  -1.18807  4.19541  3.97055
 H  -0.59684  2.42549  3.81118
 C  -3.25617  0.04876  2.60405
 C  -3.55048  -1.17187  1.45424
 C  -5.12968  -1.30165  0.88485
 H  -5.32274  -2.39282  0.54874
 H  -5.27465  -0.59006  -0.01641
 H  -5.86947  -1.01827  1.72682
 H  -3.21628  -2.18053  1.89005
 H  -2.93738  -0.91182  0.51779
 H  -4.22758  0.24189  3.19301
 H  -2.43814  -0.33076  3.32484
 H  7.07855  -2.29935  -3.81174
 H  3.43223  -0.55169  -1.56773
 H  2.43121  3.04018  -0.24593
 H  0.37188  5.95318  2.69670
*
