# ================================================================
# Orca input file made by Matty Jones
# ================================================================
! ZINDO/S 
! NOPOP
! NOMOPRINT
* xyz 0   1
 C  8.17989  -11.50387  33.57034
 C  9.05847  -10.56643  34.11547
 C  8.42946  -9.59773  34.95820
 C  7.04721  -9.77113  35.07912
 S  6.68121  -11.09523  34.15006
 H  10.18123  -10.56440  33.92185
 C  9.21951  -8.39688  35.68366
 C  10.23425  -7.46780  34.71274
 C  10.89122  -6.16884  35.57079
 H  10.02373  -5.67997  36.16527
 H  11.25845  -5.40116  34.78366
 H  11.07976  -8.13076  34.31128
 H  9.61428  -7.04966  33.83639
 H  8.56242  -7.65070  36.27020
 H  9.92595  -8.88685  36.49241
 C  12.10739  -6.50252  36.59355
 C  13.63560  -6.60710  35.89362
 C  14.02907  -8.18987  35.48090
 H  15.05069  -8.19828  34.93802
 H  13.21727  -8.62859  34.78521
 H  14.09681  -8.82530  36.44645
 H  13.65765  -5.96127  34.94057
 H  14.41475  -6.21593  36.64608
 H  11.89393  -7.50516  37.13116
 H  12.15974  -5.66675  37.39599
 C  -6.36246  8.69808  -36.60972
 C  -7.70583  8.89032  -36.28370
 C  -7.93296  9.21035  -34.90883
 C  -6.76302  9.27112  -34.14536
 S  -5.52655  8.93048  -35.19680
 H  -8.55561  8.80182  -37.04104
 C  -9.29434  9.52052  -34.05689
 C  -10.80480  8.75759  -33.65925
 C  -12.39550  8.65545  -34.26032
 H  -13.07282  8.95516  -33.36067
 H  -12.47346  9.50433  -35.04784
 H  -10.48525  7.64272  -33.59833
 H  -10.97770  9.14235  -32.57604
 H  -9.71896  10.51343  -34.54743
 H  -8.93451  9.82703  -32.98222
 C  -13.04847  7.31298  -34.90448
 C  -13.04339  7.23710  -36.58219
 C  -14.25365  6.21451  -37.15285
 H  -14.23206  5.21715  -36.56853
 H  -14.08880  6.01699  -38.28023
 H  -15.27961  6.73121  -36.99836
 H  -13.21023  8.29109  -37.01219
 H  -12.02371  6.82863  -36.92894
 H  -12.46804  6.38689  -34.51631
 H  -14.14816  7.21847  -34.55148
 H  8.42008  -12.30761  32.92234
 H  6.37422  -9.18002  35.64594
 H  -5.96120  8.45481  -37.56019
 H  -6.68318  9.48923  -33.11112
*
