# ================================================================
# Orca input file made by Matty Jones
# ================================================================
! ZINDO/S 
! NOPOP
! NOMOPRINT
* xyz 0   1
 C  10.51961  -14.83710  32.05195
 C  11.36069  -13.74232  32.25677
 C  10.73576  -12.64258  32.92331
 C  9.39444  -12.87011  33.24644
 S  9.05703  -14.39850  32.69816
 H  12.45248  -13.69266  31.92958
 C  11.74050  -11.38763  33.14718
 C  11.49463  -9.81935  32.56247
 C  12.87300  -8.87911  32.93446
 H  12.55187  -7.77001  32.88961
 H  13.18961  -9.13268  34.01453
 H  11.35911  -9.85394  31.42351
 H  10.57594  -9.35588  33.06817
 H  11.84276  -11.24419  34.30578
 H  12.80824  -11.67950  32.76649
 C  14.14351  -9.10985  31.92683
 C  14.36807  -8.11532  30.57399
 C  15.40160  -6.80870  30.82279
 H  14.87293  -6.02306  31.48626
 H  15.67159  -6.33723  29.79996
 H  16.36734  -7.17465  31.34474
 H  14.81165  -8.76086  29.72809
 H  13.34054  -7.70797  30.25105
 H  15.11520  -9.02163  32.55469
 H  14.08616  -10.19147  31.51314
 C  -8.22121  10.80167  -33.46526
 C  -9.56458  10.99391  -33.13924
 C  -9.79171  11.31393  -31.76437
 C  -8.62177  11.37470  -31.00090
 S  -7.38530  11.03407  -32.05234
 H  -10.41436  10.90540  -33.89658
 C  -11.15309  11.62411  -30.91243
 C  -12.66355  10.86117  -30.51480
 C  -14.25425  10.75903  -31.11586
 H  -14.93157  11.05874  -30.21621
 H  -14.33221  11.60791  -31.90338
 H  -12.34400  9.74631  -30.45388
 H  -12.83645  11.24594  -29.43158
 H  -11.57771  12.61702  -31.40297
 H  -10.79326  11.93062  -29.83777
 C  -14.90722  9.41657  -31.76002
 C  -14.90214  9.34068  -33.43774
 C  -16.11240  8.31810  -34.00839
 H  -16.09081  7.32073  -33.42408
 H  -15.94755  8.12057  -35.13578
 H  -17.13836  8.83480  -33.85391
 H  -15.06898  10.39468  -33.86773
 H  -13.88246  8.93222  -33.78449
 H  -14.32679  8.49047  -31.37185
 H  -16.00691  9.32205  -31.40702
 H  10.76427  -15.75534  31.58230
 H  8.73200  -12.20498  33.73876
 H  -7.81995  10.55839  -34.41574
 H  -8.54193  11.59282  -29.96667
*
