# ================================================================
# Orca input file made by Matty Jones
# ================================================================
! ZINDO/S 
! NOPOP
! NOMOPRINT
* xyz 0   1
 C  2.42048  -2.82113  -2.55593
 C  3.06775  -1.71393  -2.00545
 C  2.19819  -0.81244  -1.31591
 C  0.85753  -1.20981  -1.32195
 S  0.81913  -2.63558  -2.16821
 H  4.19774  -1.55600  -2.05071
 C  2.69497  0.53602  -0.57475
 C  3.89292  1.52748  -1.24348
 C  5.39399  1.06916  -0.59996
 H  5.45934  -0.08418  -0.65768
 H  5.37373  1.37615  0.51865
 H  3.91242  1.38929  -2.38276
 H  3.68230  2.62375  -0.97345
 H  1.77649  1.24985  -0.43561
 H  3.09235  0.26211  0.48556
 C  6.71275  1.71809  -1.29233
 C  7.13203  3.29177  -0.84794
 C  6.45544  4.44361  -1.87361
 H  5.95495  3.92190  -2.77743
 H  7.28875  5.15220  -2.25311
 H  5.66135  5.05298  -1.29314
 H  6.76774  3.48922  0.22581
 H  8.27927  3.38971  -0.89189
 H  6.58517  1.69593  -2.44202
 H  7.62406  1.05211  -1.01952
 C  -0.11457  -0.82599  -0.08415
 C  -1.42886  -0.52614  0.27728
 C  -1.60103  -0.23860  1.66723
 C  -0.41672  -0.31177  2.40707
 S  0.76450  -0.72259  1.31786
 H  -2.29417  -0.47812  -0.46670
 C  -2.94403  0.15392  2.50514
 C  -4.48095  -0.57625  2.83049
 C  -6.05228  -0.68863  2.16108
 H  -6.79946  -0.47205  3.01923
 H  -6.14616  0.15015  1.37292
 H  -4.17651  -1.68534  2.97903
 H  -4.71739  -0.12959  3.88109
 H  -2.58445  0.39358  3.59776
 H  -3.29632  1.17949  2.05178
 C  -6.40776  -2.12881  1.49341
 C  -6.78791  -2.20356  -0.14601
 C  -8.43569  -2.41655  -0.42845
 H  -9.02037  -1.49114  -0.05732
 H  -8.79712  -3.35928  0.13916
 H  -8.60936  -2.56234  -1.56325
 H  -6.46633  -1.21384  -0.64160
 H  -6.21292  -3.08007  -0.62096
 H  -5.51597  -2.85242  1.65039
 H  -7.32034  -2.56822  2.06378
 H  2.85996  -3.61357  -3.10592
 H  -0.29865  -0.14051  3.44646
*
