# ================================================================
# Orca input file made by Matty Jones
# ================================================================
! ZINDO/S 
! NOPOP
! NOMOPRINT
* xyz 0   1
 C  1.70263  -3.52716  -3.24390
 C  2.58121  -2.58972  -2.69876
 C  1.95219  -1.62103  -1.85603
 C  0.56994  -1.79442  -1.73511
 S  0.20395  -3.11852  -2.66418
 H  3.70397  -2.58769  -2.89238
 C  2.74225  -0.42017  -1.13057
 C  3.75698  0.50890  -2.10149
 C  4.41396  1.80787  -1.24344
 H  3.54647  2.29674  -0.64896
 H  4.78118  2.57554  -2.03057
 H  4.60250  -0.15406  -2.50295
 H  3.13702  0.92705  -2.97784
 H  2.08516  0.32600  -0.54403
 H  3.44869  -0.91015  -0.32182
 C  5.63013  1.47419  -0.22068
 C  7.15833  1.36961  -0.92061
 C  7.55181  -0.21316  -1.33334
 H  8.57343  -0.22158  -1.87622
 H  6.74001  -0.65188  -2.02903
 H  7.61955  -0.84859  -0.36778
 H  7.18038  2.01543  -1.87366
 H  7.93748  1.76078  -0.16815
 H  5.41667  0.47155  0.31693
 H  5.68248  2.30995  0.58176
 C  -0.17118  0.02643  -0.98545
 C  -1.06400  -0.95936  -0.56236
 C  -2.12258  -0.47178  0.26585
 C  -2.06537  0.90597  0.49791
 S  -0.72686  1.44084  -0.32230
 H  -0.85305  -2.05638  -0.20852
 C  -3.20367  -1.55611  0.78087
 C  -4.83399  -1.34408  1.20968
 C  -5.59715  0.12607  1.52649
 H  -5.02536  0.99181  1.03149
 H  -6.67735  0.09233  1.12463
 H  -5.43552  -1.79428  0.32359
 H  -5.00279  -2.02763  2.12824
 H  -2.74471  -2.06417  1.73285
 H  -3.26620  -2.39414  -0.03968
 C  -5.58566  0.24416  3.15161
 C  -6.29725  1.58700  3.84023
 C  -7.05881  2.66311  2.80118
 H  -7.60055  2.07122  1.96601
 H  -6.26543  3.36054  2.32731
 H  -7.83986  3.30148  3.36306
 H  -7.00558  1.20202  4.65207
 H  -5.42334  2.10343  4.34938
 H  -6.14780  -0.67600  3.58811
 H  -4.48936  0.19141  3.52486
 H  1.94282  -4.33090  -3.89190
 H  -0.10304  -1.20331  -1.16830
 H  0.68220  -0.10203  -1.60094
 H  -2.73691  1.48688  1.07685
*
