# ================================================================
# Orca input file made by Matty Jones
# ================================================================
! ZINDO/S 
! NOPOP
! NOMOPRINT
* xyz 0   1
 C  2.39812  -3.25663  -0.74620
 C  1.17225  -3.77279  -1.16893
 C  0.04246  -3.23472  -0.47731
 C  0.37793  -2.28892  0.49646
 S  2.03147  -2.16985  0.45111
 H  0.82226  -3.99418  -2.29551
 C  -1.46190  -3.71682  -0.85629
 C  -2.70187  -4.13339  0.26259
 C  -2.50640  -4.19906  1.94453
 H  -3.37497  -4.82505  2.38102
 H  -1.50627  -4.72486  2.17672
 H  -3.57087  -3.40426  0.05396
 H  -3.03665  -5.20090  -0.03757
 H  -1.35552  -4.67728  -1.51412
 H  -1.94357  -2.88497  -1.52443
 C  -2.53375  -2.70528  2.58100
 C  -3.98705  -1.94540  2.95309
 C  -4.46860  -0.85640  1.75414
 H  -5.62191  -0.85381  1.66688
 H  -4.01084  -1.16835  0.73772
 H  -4.10336  0.20849  2.01981
 H  -4.76207  -2.78960  3.03427
 H  -3.86723  -1.42155  3.96620
 H  -1.84252  -2.64352  3.50044
 H  -2.13351  -2.07185  1.70058
 C  -0.13663  -0.72931  0.96945
 C  -0.03711  0.40554  0.16317
 C  -0.53232  1.60022  0.77290
 C  -1.02536  1.40774  2.06719
 S  -0.82545  -0.20773  2.38457
 H  0.15342  0.32608  -0.96070
 C  -0.42196  2.95073  -0.11066
 C  1.13846  2.98823  -0.85069
 C  1.68005  4.17698  -1.92777
 H  1.87473  5.13516  -1.31371
 H  0.82900  4.37835  -2.68270
 H  1.88473  2.98313  0.03116
 H  1.25472  2.01007  -1.44744
 H  -1.21547  2.95386  -0.95299
 H  -0.54561  3.90208  0.53751
 C  3.04494  3.77140  -2.73858
 C  4.52220  4.52515  -2.39784
 C  5.54672  3.81219  -1.27283
 H  4.98757  3.68325  -0.26912
 H  6.46862  4.49715  -1.11865
 H  5.89570  2.78107  -1.66566
 H  5.10434  4.58289  -3.39533
 H  4.28968  5.59548  -2.03815
 H  2.85195  3.92969  -3.87098
 H  3.23688  2.63735  -2.56983
 H  3.36061  -3.50667  -1.11321
 H  -1.44006  2.14087  2.71073
*
