# ================================================================
# Orca input file made by Matty Jones
# ================================================================
! ZINDO/S 
! NOPOP
! NOMOPRINT
* xyz 0   1
 C  4.06870  -6.69152  -2.35967
 C  4.16062  -5.46929  -3.02719
 C  3.73438  -4.34667  -2.25111
 C  3.30371  -4.68415  -0.96428
 S  3.47061  -6.33061  -0.85596
 H  4.09875  -5.44200  -4.18305
 C  3.85483  -2.91726  -3.00438
 C  5.32916  -2.96024  -3.93352
 C  6.20482  -1.91612  -4.96569
 H  5.57346  -0.96161  -5.10993
 H  6.30276  -2.45505  -5.98586
 H  6.10541  -3.30677  -3.15048
 H  5.12672  -3.81924  -4.68245
 H  2.96958  -2.75127  -3.72886
 H  3.92628  -2.04395  -2.25248
 C  7.69237  -1.52650  -4.42602
 C  8.84473  -1.39554  -5.66430
 C  10.41205  -1.12694  -5.11317
 H  10.37715  -0.56825  -4.10083
 H  10.98904  -0.49115  -5.88895
 H  10.94491  -2.14580  -4.97507
 H  8.83876  -2.37677  -6.26789
 H  8.54228  -0.51871  -6.34648
 H  8.07815  -2.32864  -3.69129
 H  7.64957  -0.50738  -3.88234
 C  -1.39365  2.84345  3.78153
 C  -2.47608  2.17770  4.35859
 C  -3.50667  3.04499  4.83814
 C  -3.23665  4.40243  4.63874
 S  -1.75780  4.45736  3.89013
 H  -2.99460  1.14872  4.10551
 C  -4.90113  2.61992  5.53794
 C  -6.10222  2.13126  4.43070
 C  -6.86987  3.56940  3.90552
 H  -7.42807  3.97134  4.83992
 H  -6.00053  4.29810  3.66189
 H  -5.62983  1.59225  3.53847
 H  -6.87107  1.46611  4.95994
 H  -5.33539  3.46542  6.19869
 H  -4.71794  1.70299  6.23691
 C  -7.90546  3.64060  2.64700
 C  -9.57587  3.60364  2.89985
 C  -10.27393  2.08409  2.76031
 H  -9.56850  1.29191  3.22163
 H  -10.44651  1.84618  1.64025
 H  -11.28836  2.07651  3.31737
 H  -10.06692  4.29483  2.11678
 H  -9.79271  4.01024  3.95574
 H  -7.69551  4.62711  2.07102
 H  -7.66444  2.75589  1.93689
 H  4.32681  -7.64869  -2.73490
 H  2.94554  -4.02553  -0.21492
 H  -0.52245  2.40893  3.36224
 H  -3.84897  5.22426  4.90940
*
