# ================================================================
# Orca input file made by Matty Jones
# ================================================================
! ZINDO/S 
! NOPOP
! NOMOPRINT
* xyz 0   1
 C  2.42909  -3.69775  -1.80792
 C  3.02676  -3.00289  -0.75537
 C  2.19011  -2.00516  -0.16478
 C  0.92541  -1.91171  -0.75396
 S  0.90915  -3.05242  -1.95767
 H  4.09106  -3.19158  -0.39982
 C  2.61383  -1.03947  1.06185
 C  3.93868  -0.02637  0.77400
 C  4.34798  1.07104  2.00088
 H  3.38235  1.61460  2.32881
 H  4.76426  0.47140  2.89529
 H  4.85791  -0.69048  0.57839
 H  3.69352  0.58733  -0.17055
 H  1.73210  -0.38450  1.43725
 H  2.93556  -1.71460  1.97054
 C  5.44744  2.16249  1.49132
 C  7.05136  1.71851  1.75768
 C  7.65953  0.69764  0.56822
 H  6.89190  0.59051  -0.29077
 H  7.86240  -0.34258  1.03538
 H  8.64708  1.13409  0.15234
 H  7.68870  2.67989  1.76604
 H  7.13089  1.19722  2.78086
 H  5.27141  3.16483  2.04432
 H  5.31547  2.34915  0.35688
 C  0.46077  0.12456  -0.64751
 C  -0.62167  -0.54120  -0.07045
 C  -1.65225  0.32609  0.40910
 C  -1.38223  1.68353  0.20970
 S  0.09661  1.73847  -0.53892
 H  -1.14019  -1.57018  -0.32353
 C  -3.04671  -0.09898  1.10890
 C  -4.24780  -0.58763  0.00165
 C  -5.01545  0.85050  -0.52352
 H  -5.57366  1.25244  0.41088
 H  -4.14612  1.57920  -0.76715
 H  -3.77542  -1.12665  -0.89057
 H  -5.01666  -1.25279  0.53089
 H  -3.48098  0.74652  1.76964
 H  -2.86353  -1.01590  1.80786
 C  -6.05104  0.92171  -1.78204
 C  -7.72146  0.88474  -1.52919
 C  -8.41952  -0.63481  -1.66874
 H  -7.71409  -1.42699  -1.20741
 H  -8.59210  -0.87272  -2.78879
 H  -9.43394  -0.64239  -1.11167
 H  -8.21251  1.57593  -2.31226
 H  -7.93829  1.29134  -0.47331
 H  -5.84110  1.90822  -2.35802
 H  -5.81002  0.03699  -2.49215
 H  2.85671  -4.47431  -2.38904
 H  0.14127  -1.25026  -0.48709
 H  1.33197  -0.30997  -1.06680
 H  -1.99455  2.50536  0.48036
*
