# ================================================================
# Orca input file made by Matty Jones
# ================================================================
! ZINDO/S 
! NOPOP
! NOMOPRINT
* xyz 0   1
 C  1.57072  -2.26600  -1.24610
 C  1.66264  -1.04376  -1.91362
 C  1.23640  0.07886  -1.13754
 C  0.80573  -0.25862  0.14929
 S  0.97264  -1.90508  0.25761
 H  1.60077  -1.01647  -3.06948
 C  1.35685  1.50827  -1.89080
 C  2.83118  1.46529  -2.81995
 C  3.70685  2.50940  -3.85212
 H  3.07548  3.46392  -3.99636
 H  3.80478  1.97048  -4.87229
 H  3.60743  1.11876  -2.03691
 H  2.62875  0.60628  -3.56888
 H  0.47161  1.67426  -2.61529
 H  1.42830  2.38158  -1.13891
 C  5.19439  2.89902  -3.31245
 C  6.34675  3.02999  -4.55072
 C  7.91407  3.29859  -3.99960
 H  7.87918  3.85727  -2.98726
 H  8.49106  3.93437  -4.77538
 H  8.44693  2.27973  -3.86149
 H  6.34078  2.04876  -5.15432
 H  6.04431  3.90682  -5.23291
 H  5.58017  2.09689  -2.57771
 H  5.15159  3.91815  -2.76877
 C  -0.09557  0.61118  1.24873
 C  -0.96796  -0.00798  2.14509
 C  -1.66974  0.89976  2.99818
 C  -1.34988  2.24248  2.77432
 S  -0.23134  2.23598  1.54988
 H  -0.58048  -0.96796  2.68940
 C  -2.72940  0.33213  4.08462
 C  -3.87430  -0.67976  3.28674
 C  -5.21808  -1.63961  3.73593
 H  -5.50729  -1.32206  4.80959
 H  -6.08386  -1.36536  3.02049
 H  -3.17049  -1.45450  2.82813
 H  -4.30625  0.01713  2.47037
 H  -3.31893  1.19303  4.58938
 H  -2.19419  -0.29697  4.89897
 C  -4.99352  -3.25792  3.70352
 C  -5.18268  -3.97763  2.16826
 C  -6.67747  -4.56703  1.67070
 H  -6.53222  -5.60760  1.18313
 H  -7.13146  -3.84081  0.89104
 H  -7.38511  -4.65733  2.57944
 H  -4.44036  -4.85909  2.11753
 H  -4.90200  -3.17737  1.38764
 H  -5.76323  -3.76334  4.40227
 H  -3.93185  -3.51051  4.07884
 H  1.82883  -3.22317  -1.62133
 H  -1.74053  3.08756  3.28111
*
