# ================================================================
# Orca input file made by Matty Jones
# ================================================================
! ZINDO/S 
! NOPOP
! NOMOPRINT
* xyz 0   1
 C  1.59749  -3.57662  -3.07445
 C  2.48331  -2.59611  -2.62521
 C  1.89708  -1.64347  -1.73469
 C  0.54152  -1.87288  -1.47946
 S  0.14521  -3.22334  -2.35671
 H  3.58434  -2.55577  -2.91086
 C  2.74394  -0.40571  -1.12311
 C  3.67468  0.50768  -2.18570
 C  4.35707  1.77661  -1.30284
 H  4.41067  1.47502  -0.19048
 H  3.61040  2.66338  -1.38694
 H  4.49645  -0.14626  -2.65168
 H  2.99149  0.93655  -3.00609
 H  2.16424  0.39610  -0.53624
 H  3.49657  -0.87051  -0.35682
 C  5.79807  2.26277  -1.86222
 C  7.11342  1.50448  -1.11244
 C  6.75548  0.47208  0.17168
 H  6.27484  1.07820  1.03190
 H  7.73617  -0.01517  0.54906
 H  6.02853  -0.35360  -0.18436
 H  7.66213  0.88319  -1.91364
 H  7.81530  2.32880  -0.71669
 H  5.90841  3.40243  -1.69495
 H  5.86995  2.04734  -2.99701
 C  0.10193  -0.32320  -0.11053
 C  -1.12395  -0.83937  -0.53326
 C  -2.25373  -0.30130  0.15837
 C  -1.91827  0.64450  1.13214
 S  -0.26473  0.76358  1.08679
 H  -1.47393  -1.06075  -1.65983
 C  -3.75810  -0.78339  -0.22062
 C  -4.99806  -1.19996  0.89827
 C  -4.80259  -1.26563  2.58020
 H  -5.67116  -1.89162  3.01669
 H  -3.80246  -1.79143  2.81239
 H  -5.86707  -0.47084  0.68963
 H  -5.33284  -2.26747  0.59810
 H  -3.65172  -1.74385  -0.87844
 H  -4.23976  0.04846  -0.88875
 C  -4.82994  0.22814  3.21667
 C  -6.28324  0.98802  3.58877
 C  -6.76479  2.07703  2.38982
 H  -7.91810  2.07961  2.30255
 H  -6.30703  1.76508  1.37339
 H  -6.39956  3.14192  2.65548
 H  -7.05827  0.14383  3.66995
 H  -6.16342  1.51188  4.60187
 H  -4.13872  0.28990  4.13611
 H  -4.42971  0.86157  2.33626
 H  1.80865  -4.37815  -3.73518
 H  -0.09871  -1.30295  -0.85586
 H  1.06442  -0.57325  -0.47753
 H  -2.58189  1.17442  1.76648
*
