# ================================================================
# Orca input file made by Matty Jones
# ================================================================
! ZINDO/S 
! NOPOP
! NOMOPRINT
* xyz 0   1
 C  2.30213  -2.97843  -3.03159
 C  1.02513  -3.50436  -2.83015
 C  0.18318  -2.69393  -2.00638
 C  0.79845  -1.52215  -1.55507
 S  2.33025  -1.55008  -2.19009
 H  0.66557  -4.48522  -3.29320
 C  -1.29852  -3.26925  -1.70586
 C  -2.71515  -2.32651  -1.67518
 C  -4.08047  -3.31749  -1.44608
 H  -4.96683  -2.77937  -1.96057
 H  -3.88196  -4.31024  -2.00690
 H  -2.81762  -1.76552  -2.67061
 H  -2.70813  -1.60157  -0.79675
 H  -1.28796  -3.80029  -0.66065
 H  -1.53220  -4.08812  -2.50442
 C  -4.48901  -3.64311  0.09401
 C  -5.82125  -4.68112  0.21660
 C  -7.30595  -3.89236  0.24833
 H  -8.11232  -4.61675  0.65415
 H  -7.58630  -3.56185  -0.82471
 H  -7.23509  -2.96496  0.93631
 H  -5.71295  -5.28933  1.18945
 H  -5.81030  -5.39608  -0.68692
 H  -3.60049  -4.15178  0.63186
 H  -4.74773  -2.66247  0.64764
 C  0.29977  -0.30421  -0.48465
 C  1.18558  0.67630  -0.03541
 C  0.59935  1.62895  0.85511
 C  -0.75620  1.39953  1.11034
 S  -1.15251  0.04907  0.23309
 H  2.28662  0.71664  -0.32106
 C  1.44621  2.86670  1.46669
 C  2.37696  3.78010  0.40410
 C  3.05935  5.04902  1.28696
 H  3.11295  4.74743  2.39932
 H  2.31268  5.93580  1.20286
 H  3.19873  3.12615  -0.06188
 H  1.69377  4.20897  -0.41629
 H  0.86652  3.66852  2.05356
 H  2.19885  2.40190  2.23298
 C  4.50035  5.53518  0.72758
 C  5.81570  4.77689  1.47736
 C  5.45776  3.74449  2.76148
 H  4.97712  4.35061  3.62170
 H  6.43845  3.25724  3.13886
 H  4.73080  2.91881  2.40544
 H  6.36441  4.15560  0.67616
 H  6.51758  5.60122  1.87311
 H  4.61069  6.67484  0.89485
 H  4.57223  5.31975  -0.40721
 H  3.08824  -3.40268  -3.60223
 H  -1.39643  1.96946  1.73394
*
