# ================================================================
# Orca input file made by Matty Jones
# ================================================================
! ZINDO/S 
! NOPOP
! NOMOPRINT
* xyz 0   1
 C  -0.21025  -6.40102  -2.25415
 C  0.67557  -5.42051  -1.80491
 C  0.08934  -4.46787  -0.91438
 C  -1.26622  -4.69728  -0.65916
 S  -1.66253  -6.04775  -1.53640
 H  1.77660  -5.38017  -2.09055
 C  0.93620  -3.23011  -0.30280
 C  1.86694  -2.31672  -1.36539
 C  2.54933  -1.04779  -0.48254
 H  2.60293  -1.34938  0.62983
 H  1.80266  -0.16102  -0.56663
 H  2.68871  -2.97067  -1.83137
 H  1.18376  -1.88785  -2.18578
 H  0.35650  -2.42830  0.28407
 H  1.68883  -3.69491  0.46349
 C  3.99033  -0.56163  -1.04191
 C  5.30568  -1.31993  -0.29214
 C  4.94774  -2.35232  0.99198
 H  4.46710  -1.74620  1.85221
 H  5.92844  -2.83957  1.36937
 H  4.22079  -3.17801  0.63595
 H  5.85439  -1.94121  -1.09333
 H  6.00756  -0.49560  0.10362
 H  4.10067  0.57803  -0.87464
 H  4.06221  -0.77707  -2.17670
 C  -4.24056  -0.62028  2.42544
 C  -4.14104  0.51457  1.61915
 C  -4.63625  1.70924  2.22889
 C  -5.12929  1.51676  3.52318
 S  -4.92938  -0.09870  3.84056
 H  -3.95051  0.43510  0.49529
 C  -4.52589  3.05975  1.34532
 C  -2.96547  3.09725  0.60529
 C  -2.42388  4.28600  -0.47179
 H  -2.22920  5.24418  0.14227
 H  -3.27493  4.48737  -1.22671
 H  -2.21920  3.09215  1.48714
 H  -2.84921  2.11910  0.00855
 H  -5.31940  3.06288  0.50300
 H  -4.64954  4.01110  1.99349
 C  -1.05899  3.88043  -1.28259
 C  0.41827  4.63418  -0.94185
 C  1.44279  3.92121  0.18316
 H  0.88364  3.79228  1.18687
 H  2.36469  4.60617  0.33733
 H  1.79177  2.89009  -0.20967
 H  1.00041  4.69191  -1.93934
 H  0.18575  5.70451  -0.58217
 H  -1.25198  4.03871  -2.41500
 H  -0.86705  2.74638  -1.11385
 H  0.00091  -7.20255  -2.91487
 H  -1.90645  -4.12735  -0.03555
 H  -3.93930  -1.60748  2.18401
 H  -5.54399  2.24989  4.16672
*
