# ================================================================
# Orca input file made by Matty Jones
# ================================================================
! ZINDO/S 
! NOPOP
! NOMOPRINT
* xyz 0   1
 C  8.22357  -11.67608  33.66486
 C  9.10939  -10.69557  34.11410
 C  8.52316  -9.74293  35.00462
 C  7.16760  -9.97234  35.25984
 S  6.77129  -11.32280  34.38260
 H  10.21042  -10.65523  33.82845
 C  9.37002  -8.50517  35.61620
 C  10.30076  -7.59178  34.55361
 C  10.98315  -6.32285  35.43646
 H  11.03675  -6.62444  36.54883
 H  10.23648  -5.43608  35.35237
 H  11.12253  -8.24572  34.08763
 H  9.61758  -7.16291  33.73322
 H  8.79032  -7.70336  36.20307
 H  10.12265  -8.96997  36.38249
 C  12.42415  -5.83669  34.87709
 C  13.73950  -6.59499  35.62687
 C  13.38156  -7.62738  36.91098
 H  12.90092  -7.02126  37.77121
 H  14.36226  -8.11463  37.28837
 H  12.65461  -8.45306  36.55495
 H  14.28821  -7.21627  34.82567
 H  14.44139  -5.77066  36.02262
 H  12.53449  -4.69703  35.04436
 H  12.49603  -6.05212  33.74230
 C  -6.40553  8.42419  -36.58496
 C  -7.71982  8.72403  -36.22353
 C  -7.89199  9.01157  -34.83358
 C  -6.70767  8.93840  -34.09375
 S  -5.52645  8.52758  -35.18295
 H  -8.58513  8.77206  -36.96751
 C  -9.23498  9.40410  -33.99567
 C  -10.77191  8.67393  -33.67032
 C  -12.34324  8.56155  -34.33974
 H  -13.09041  8.77813  -33.48159
 H  -12.43712  9.40032  -35.12789
 H  -10.46746  7.56484  -33.52178
 H  -11.00834  9.12058  -32.61973
 H  -8.87541  9.64376  -32.90306
 H  -9.58727  10.42966  -34.44904
 C  -12.69871  7.12136  -35.00740
 C  -13.07887  7.04662  -36.64682
 C  -14.72665  6.83362  -36.92927
 H  -15.31133  7.75903  -36.55813
 H  -15.08808  5.89089  -36.36166
 H  -14.90031  6.68784  -38.06407
 H  -12.75728  8.03633  -37.14241
 H  -12.50387  6.17010  -37.12178
 H  -11.80692  6.39775  -34.85042
 H  -13.61130  6.68195  -34.43704
 H  8.43473  -12.47761  33.00413
 H  6.52737  -9.40241  35.88345
 H  -6.04530  8.18153  -37.55189
 H  -6.58960  9.10966  -33.05436
*
