# ================================================================
# Orca input file made by Matty Jones
# ================================================================
! ZINDO/S 
! NOPOP
! NOMOPRINT
* xyz 0   1
 C  2.49380  -3.56654  -1.75670
 C  1.41136  -4.23230  -1.17964
 C  0.38078  -3.36501  -0.70008
 C  0.65079  -2.00757  -0.89948
 S  2.12964  -1.95263  -1.64810
 H  0.89284  -5.26128  -1.43271
 C  -1.01368  -3.79008  -0.00029
 C  -2.21478  -4.27873  -1.10753
 C  -2.98243  -2.84060  -1.63270
 H  -3.54063  -2.43866  -0.69830
 H  -2.11309  -2.11190  -1.87634
 H  -1.74239  -4.81775  -1.99976
 H  -2.98363  -4.94389  -0.57829
 H  -1.44795  -2.94458  0.66046
 H  -0.83050  -4.70700  0.69868
 C  -4.01801  -2.76939  -2.89123
 C  -5.68843  -2.80636  -2.63837
 C  -6.38649  -4.32591  -2.77792
 H  -5.68106  -5.11809  -2.31659
 H  -6.55907  -4.56382  -3.89798
 H  -7.40091  -4.33349  -2.22085
 H  -6.17948  -2.11517  -3.42144
 H  -5.90527  -2.39976  -1.58249
 H  -3.80807  -1.78288  -3.46721
 H  -3.77699  -3.65411  -3.60133
 C  0.11249  -0.77070  -0.01730
 C  0.87933  0.16218  0.68240
 C  0.11010  1.14823  1.37540
 C  -1.27113  0.99317  1.22215
 S  -1.46520  -0.33706  0.25093
 H  2.01722  0.11961  0.75152
 C  0.80232  2.31384  2.26114
 C  2.19356  3.13854  1.76663
 C  2.68568  4.35640  2.84939
 H  2.37692  4.02758  3.91437
 H  2.11118  5.32127  2.57654
 H  3.04795  2.37120  1.68401
 H  1.99333  3.62145  0.74379
 H  0.02708  3.17612  2.41415
 H  1.08327  1.87794  3.30161
 C  4.28887  4.64268  2.81778
 C  4.87017  5.32216  1.38576
 C  4.87781  6.99770  1.29049
 H  5.69479  7.42076  1.99205
 H  3.84172  7.40615  1.60334
 H  5.10490  7.31111  0.19886
 H  5.95795  4.95895  1.24947
 H  4.22670  4.91875  0.51745
 H  4.86100  3.65350  2.99803
 H  4.55500  5.37798  3.67287
 H  3.36500  -4.00106  -2.17598
 H  -2.03433  1.59901  1.63937
*
