# ================================================================
# Orca input file made by Matty Jones
# ================================================================
! ZINDO/S 
! NOPOP
! NOMOPRINT
* xyz 0   1
 C  2.15315  -3.11946  -1.71540
 C  1.26034  -4.10525  -1.29232
 C  0.20175  -3.61767  -0.46411
 C  0.25897  -2.23992  -0.23205
 S  1.59747  -1.70505  -1.05226
 H  1.47129  -5.20227  -0.93847
 C  -0.87934  -4.70200  0.05092
 C  -2.50966  -4.48997  0.47972
 C  -3.27282  -3.01981  0.79654
 H  -2.70103  -2.15408  0.30153
 H  -4.35301  -3.05356  0.39467
 H  -3.11119  -4.94017  -0.40637
 H  -2.67846  -5.17352  1.39828
 H  -0.42038  -5.21006  1.00289
 H  -0.94187  -5.54002  -0.76964
 C  -3.26133  -2.90173  2.42165
 C  -3.97292  -1.55889  3.11028
 C  -4.73447  -0.48277  2.07122
 H  -5.27622  -1.07467  1.23605
 H  -3.94109  0.21465  1.59736
 H  -5.51553  0.15560  2.63311
 H  -4.68125  -1.94386  3.92211
 H  -3.09900  -1.04245  3.61942
 H  -3.82347  -3.82189  2.85815
 H  -2.16503  -2.95448  2.79490
 C  -0.24499  -0.92082  0.69952
 C  -0.15307  0.30141  0.03199
 C  -0.57931  1.42403  0.80807
 C  -1.00998  1.08655  2.09491
 S  -0.84307  -0.55991  2.20323
 H  -0.21493  0.32870  -1.12386
 C  -0.45886  2.85344  0.05481
 C  1.01548  2.81046  -0.87433
 C  1.89114  3.85458  -1.90651
 H  1.25978  4.80909  -2.05074
 H  1.98908  3.31565  -2.92668
 H  1.79173  2.46393  -0.09129
 H  0.81304  1.95146  -1.62326
 H  -1.34410  3.01943  -0.66967
 H  -0.38741  3.72675  0.80671
 C  3.37869  4.24420  -1.36683
 C  4.53105  4.37516  -2.60511
 C  6.09837  4.64376  -2.05398
 H  6.06347  5.20245  -1.04165
 H  6.67536  5.27955  -2.82976
 H  6.63123  3.62490  -1.91588
 H  4.52508  3.39393  -3.20871
 H  4.22860  5.25199  -3.28729
 H  3.76447  3.44206  -0.63210
 H  3.33588  5.26332  -0.82315
 H  3.00653  -3.24792  -2.33090
 H  -1.36814  1.74517  2.84427
*
