# ================================================================
# Orca input file made by Matty Jones
# ================================================================
! ZINDO/S 
! NOPOP
! NOMOPRINT
* xyz 0   1
 C  1.79460  -2.33216  -0.88172
 C  1.89412  -1.19731  -1.68800
 C  1.39891  -0.00264  -1.07827
 C  0.90586  -0.19512  0.21603
 S  1.10578  -1.81058  0.53341
 H  2.08465  -1.27678  -2.81187
 C  1.50926  1.34787  -1.96183
 C  3.06969  1.38537  -2.70186
 C  3.61128  2.57412  -3.77894
 H  3.80596  3.53230  -3.16488
 H  2.76023  2.77549  -4.53386
 H  3.81596  1.38027  -1.82001
 H  3.18595  0.40722  -3.29861
 H  0.71575  1.35100  -2.80415
 H  1.38561  2.29922  -1.31366
 C  4.97617  2.16855  -4.58975
 C  6.45343  2.92230  -4.24901
 C  7.47795  2.20933  -3.12400
 H  6.91880  2.08040  -2.12029
 H  8.39985  2.89429  -2.96982
 H  7.82692  1.17821  -3.51682
 H  7.03557  2.98003  -5.24649
 H  6.22091  3.99263  -3.88932
 H  4.78318  2.32683  -5.72215
 H  5.16811  1.03449  -4.42100
 C  0.04506  0.69752  1.34015
 C  -0.93904  0.10227  2.13080
 C  -1.57801  0.99993  3.04194
 C  -1.09603  2.31062  2.97038
 S  0.07882  2.29015  1.80002
 H  -1.12798  -1.02101  2.16229
 C  -2.75238  0.54034  4.04908
 C  -4.24523  0.09837  3.38541
 C  -4.54318  -1.40983  2.69594
 H  -3.54664  -1.65819  2.16652
 H  -5.33633  -1.19152  1.86822
 H  -4.48425  0.89159  2.57922
 H  -5.01235  0.20920  4.24792
 H  -2.97478  1.38523  4.81791
 H  -2.38355  -0.38470  4.65854
 C  -5.04288  -2.76142  3.45141
 C  -5.33719  -3.98205  2.30160
 C  -6.91639  -4.11183  1.73221
 H  -7.10945  -5.20301  1.39610
 H  -7.06135  -3.40024  0.83095
 H  -7.65618  -3.82846  2.57418
 H  -5.00298  -4.99071  2.73741
 H  -4.72409  -3.72200  1.36515
 H  -6.01428  -2.56829  4.04037
 H  -4.22485  -3.14094  4.17220
 H  2.09586  -3.31936  -1.12314
 H  -1.41483  3.14300  3.54407
*
