# ================================================================
# Orca input file made by Matty Jones
# ================================================================
! ZINDO/S 
! NOPOP
! NOMOPRINT
* xyz 0   1
 C  2.28138  -2.88825  -2.77254
 C  3.04823  -1.95538  -2.07285
 C  2.27899  -0.96933  -1.37984
 C  0.89776  -1.12438  -1.53309
 S  0.70369  -2.45461  -2.50431
 H  4.18612  -1.99794  -2.00372
 C  2.97121  0.19629  -0.49410
 C  4.36245  1.02098  -0.98861
 C  4.85457  2.23885  0.09414
 H  4.54582  1.91003  1.15913
 H  4.28007  3.20371  -0.17871
 H  5.21685  0.25364  -1.07123
 H  4.16223  1.50389  -2.01145
 H  2.19597  1.05857  -0.34109
 H  3.25217  -0.23962  0.54637
 C  6.45776  2.52512  0.06254
 C  7.03906  3.20461  -1.36948
 C  7.04670  4.88014  -1.46475
 H  7.86368  5.30321  -0.76319
 H  6.01061  5.28860  -1.15190
 H  7.27380  5.19355  -2.55638
 H  8.12685  2.84139  -1.50578
 H  6.39559  2.80120  -2.23779
 H  7.02989  1.53594  0.24279
 H  6.72389  3.26043  0.91762
 C  -0.14537  -0.76935  -0.31694
 C  -1.48874  -0.57711  0.00908
 C  -1.71587  -0.25709  1.38395
 C  -0.54593  -0.19632  2.14742
 S  0.69054  -0.53695  1.09598
 H  -2.33852  -0.66562  -0.74825
 C  -3.07725  0.05309  2.23589
 C  -4.58771  -0.70985  2.63353
 C  -6.17841  -0.81199  2.03246
 H  -6.85573  -0.51228  2.93211
 H  -6.25637  0.03689  1.24494
 H  -4.26816  -1.82471  2.69445
 H  -4.76061  -0.32508  3.71675
 H  -3.50187  1.04600  1.74535
 H  -2.71742  0.35960  3.31056
 C  -6.83138  -2.15445  1.38831
 C  -6.82630  -2.23034  -0.28941
 C  -8.03656  -3.25292  -0.86007
 H  -8.01497  -4.25029  -0.27575
 H  -7.87171  -3.45045  -1.98745
 H  -9.06252  -2.73622  -0.70558
 H  -6.99314  -1.17634  -0.71941
 H  -5.80662  -2.63880  -0.63616
 H  -6.25095  -3.08055  1.77648
 H  -7.93107  -2.24897  1.74131
 H  2.63337  -3.70233  -3.35304
 H  -0.46609  0.02180  3.18166
*
