# ================================================================
# Orca input file made by Matty Jones
# ================================================================
! ZINDO/S 
! NOPOP
! NOMOPRINT
* xyz 0   1
 C  12.82276  -10.90240  32.16319
 C  11.55547  -11.43088  32.41334
 C  10.73449  -10.60938  33.24723
 C  11.35664  -9.42624  33.65762
 S  12.86850  -9.45837  32.97669
 H  11.19318  -12.43114  32.00124
 C  9.25435  -11.17319  33.59666
 C  7.82375  -10.25638  33.67472
 C  6.43796  -11.21021  33.95626
 H  5.57477  -10.69522  33.37915
 H  6.64029  -12.23978  33.46770
 H  7.69813  -9.66395  32.70256
 H  7.85986  -9.56940  34.58369
 H  9.30906  -11.69549  34.64665
 H  8.99818  -12.00693  32.81575
 C  5.96016  -11.44831  35.49430
 C  4.62195  -12.47984  35.63209
 C  5.05034  -14.09568  35.82294
 H  5.60801  -14.45961  34.87671
 H  4.09505  -14.72976  35.97984
 H  5.74073  -14.19995  36.74598
 H  3.98486  -12.38267  34.67743
 H  4.00246  -12.15492  36.54635
 H  6.82604  -11.90483  36.10758
 H  5.66210  -10.43514  35.96587
 C  -3.65045  12.00701  -35.51867
 C  -4.99383  12.19925  -35.19265
 C  -5.22095  12.51927  -33.81778
 C  -4.05102  12.58004  -33.05431
 S  -2.81454  12.23940  -34.10575
 H  -5.84361  12.11074  -35.94999
 C  -6.58234  12.82944  -32.96584
 C  -8.09279  12.06651  -32.56821
 C  -9.68349  11.96437  -33.16927
 H  -10.36081  12.26408  -32.26962
 H  -9.76145  12.81325  -33.95679
 H  -7.77325  10.95164  -32.50729
 H  -8.26569  12.45127  -31.48499
 H  -7.00696  13.82235  -33.45638
 H  -6.22251  13.13595  -31.89118
 C  -10.33646  10.62190  -33.81343
 C  -10.33139  10.54602  -35.49115
 C  -11.54164  9.52343  -36.06180
 H  -11.52006  8.52607  -35.47749
 H  -11.37680  9.32591  -37.18919
 H  -12.56760  10.04013  -35.90732
 H  -10.49823  11.60002  -35.92114
 H  -9.31171  10.13756  -35.83790
 H  -9.75603  9.69581  -33.42526
 H  -11.43616  10.52739  -33.46043
 H  13.59349  -11.33333  31.57677
 H  10.94759  -8.66765  34.27472
 H  -3.24919  11.76373  -36.46915
 H  -3.97117  12.79815  -32.02007
*
