# ================================================================
# Orca input file made by Matty Jones
# ================================================================
! ZINDO/S 
! NOPOP
! NOMOPRINT
* xyz 0   1
 C  6.15397  -2.54118  -2.47936
 C  5.16987  -3.13642  -1.68871
 C  4.53090  -2.23876  -0.77758
 C  5.01288  -0.92807  -0.84913
 S  6.18773  -0.94854  -2.01949
 H  4.98093  -4.25970  -1.65722
 C  3.35653  -2.69835  0.22957
 C  1.86368  -3.14032  -0.43411
 C  1.56573  -4.64852  -1.12357
 H  2.56227  -4.89689  -1.65299
 H  0.77258  -4.43021  -1.95129
 H  1.62466  -2.34710  -1.24030
 H  1.09656  -3.02949  0.42841
 H  3.13413  -1.85346  0.99840
 H  3.72536  -3.62339  0.83903
 C  1.06603  -6.00011  -0.36810
 C  0.77172  -7.22075  -1.51791
 C  -0.80748  -7.35052  -2.08730
 H  -1.00054  -8.44170  -2.42341
 H  -0.95244  -6.63893  -2.98856
 H  -1.54727  -7.06715  -1.24533
 H  1.10593  -8.22941  -1.08210
 H  1.38482  -6.96069  -2.45436
 H  0.09463  -5.80698  0.22086
 H  1.88406  -6.37963  0.35269
 C  2.40417  4.07153  1.42457
 C  1.27599  3.35459  1.82595
 C  0.19721  4.17279  2.28537
 C  0.47496  5.54270  2.24656
 S  2.01895  5.66777  1.65419
 H  0.79409  2.34197  1.44866
 C  -1.25730  3.68999  2.79849
 C  -2.28052  3.10247  1.58123
 C  -3.04519  4.44745  0.83851
 H  -2.29697  5.32774  0.96092
 H  -3.08006  4.17758  -0.28971
 H  -1.67331  2.53141  0.79590
 H  -3.08786  2.43294  2.04524
 H  -1.83280  4.48045  3.40315
 H  -1.10264  2.78036  3.52350
 C  -4.51660  5.01433  1.25578
 C  -5.75592  4.40716  0.27377
 C  -5.97203  5.28167  -1.15231
 H  -6.19089  6.38864  -0.89987
 H  -6.86026  4.83189  -1.74227
 H  -5.00881  5.21028  -1.79004
 H  -6.74047  4.44784  0.87012
 H  -5.50953  3.31639  0.00287
 H  -4.75461  4.71964  2.34734
 H  -4.53256  6.16735  1.17065
 H  6.75341  -3.00869  -3.21808
 H  4.69408  -0.09569  -0.27545
 H  3.31519  3.67844  1.05157
 H  -0.16695  6.33529  2.53529
*
