# ================================================================
# Orca input file made by Matty Jones
# ================================================================
! ZINDO/S 
! NOPOP
! NOMOPRINT
* xyz 0   1
 C  2.45335  -3.66041  -1.74424
 C  3.06543  -2.93165  -0.72337
 C  2.22312  -1.94267  -0.12613
 C  0.93945  -1.89024  -0.67819
 S  0.91454  -3.05391  -1.85958
 H  4.14865  -3.08800  -0.39567
 C  2.66003  -0.93750  1.06143
 C  3.84834  0.17628  0.61792
 C  4.30221  1.34016  1.75806
 H  3.42031  1.43821  2.50508
 H  4.40966  2.34845  1.19873
 H  4.78731  -0.41589  0.31237
 H  3.44329  0.74769  -0.30143
 H  1.76957  -0.38683  1.55799
 H  3.14888  -1.57593  1.91540
 C  5.65848  1.02409  2.59143
 C  7.02860  1.47109  1.70258
 C  7.55296  0.21975  0.70557
 H  8.70761  0.15766  0.74729
 H  7.21368  0.42975  -0.38106
 H  7.10076  -0.78383  1.06339
 H  6.77497  2.38318  1.04735
 H  7.87234  1.74324  2.43593
 H  5.72498  -0.09678  2.85445
 H  5.66549  1.63962  3.57136
 C  0.45309  0.12353  -0.39686
 C  -0.67509  -0.59341  0.00452
 C  -1.75387  0.22479  0.46394
 C  -1.47612  1.59470  0.42513
 S  0.06787  1.71977  -0.16723
 H  -1.15699  -1.60603  -0.37277
 C  -3.20838  -0.25801  0.97706
 C  -4.23160  -0.84553  -0.24020
 C  -4.99627  0.49945  -0.98292
 H  -4.24805  1.37974  -0.86050
 H  -5.03114  0.22958  -2.11113
 H  -3.62440  -1.41659  -1.02553
 H  -5.03894  -1.51506  0.22381
 H  -3.78388  0.53245  1.58172
 H  -3.05372  -1.16764  1.70207
 C  -6.46768  1.06632  -0.56564
 C  -7.70700  0.45916  -1.54766
 C  -7.92311  1.33367  -2.97374
 H  -8.14197  2.44064  -2.72130
 H  -8.81134  0.88389  -3.56370
 H  -6.95989  1.26228  -3.61147
 H  -8.69155  0.49983  -0.95131
 H  -7.46061  -0.63161  -1.81856
 H  -6.70569  0.77164  0.52591
 H  -6.48364  2.21935  -0.65078
 H  2.88190  -4.43773  -2.32366
 H  0.14799  -1.24238  -0.39986
 H  1.36411  -0.26956  -0.76985
 H  -2.11803  2.38729  0.71386
*
