# ================================================================
# Orca input file made by Matty Jones
# ================================================================
! ZINDO/S 
! NOPOP
! NOMOPRINT
* xyz 0   1
 C  4.60007  -5.83826  -4.54174
 C  5.19774  -5.14340  -3.48919
 C  4.36108  -4.14567  -2.89860
 C  3.09638  -4.05222  -3.48778
 S  3.08013  -5.19293  -4.69149
 H  6.26204  -5.33208  -3.13364
 C  4.78481  -3.17998  -1.67197
 C  6.10966  -2.16687  -1.95982
 C  6.51896  -1.06947  -0.73294
 H  5.55333  -0.52591  -0.40501
 H  6.93524  -1.66911  0.16147
 H  7.02888  -2.83099  -2.15543
 H  5.86449  -1.55318  -2.90437
 H  3.90308  -2.52500  -1.29658
 H  5.10654  -3.85511  -0.76328
 C  7.61842  0.02198  -1.24250
 C  9.22234  -0.42199  -0.97614
 C  9.83051  -1.44287  -2.16560
 H  9.06288  -1.55000  -3.02460
 H  10.03338  -2.48309  -1.69844
 H  10.81806  -1.00642  -2.58148
 H  9.85968  0.53939  -0.96778
 H  9.30187  -0.94329  0.04704
 H  7.44239  1.02432  -0.68951
 H  7.48644  0.20864  -2.37694
 C  -2.17631  2.89880  0.81367
 C  -3.51968  3.09104  1.13969
 C  -3.74681  3.41106  2.51456
 C  -2.57688  3.47183  3.27803
 S  -1.34040  3.13120  2.22659
 H  -4.36947  3.00253  0.38235
 C  -5.10820  3.72123  3.36650
 C  -6.61865  2.95830  3.76413
 C  -8.20935  2.85616  3.16307
 H  -8.88667  3.15587  4.06272
 H  -8.28731  3.70504  2.37555
 H  -6.29910  1.84343  3.82505
 H  -6.79155  3.34307  4.84735
 H  -5.53282  4.71415  2.87596
 H  -4.74837  4.02775  4.44116
 C  -8.86232  1.51369  2.51891
 C  -8.85725  1.43781  0.84119
 C  -10.06750  0.41523  0.27054
 H  -10.04591  -0.58214  0.85485
 H  -9.90266  0.21770  -0.85685
 H  -11.09346  0.93193  0.42502
 H  -9.02409  2.49181  0.41120
 H  -7.83756  1.02935  0.49444
 H  -8.28189  0.58760  2.90708
 H  -9.96201  1.41918  2.87191
 H  5.02769  -6.61482  -5.12287
 H  2.31225  -3.39077  -3.22091
 H  -1.77505  2.65552  -0.13681
 H  -2.49703  3.68994  4.31226
*
