# ================================================================
# Orca input file made by Matty Jones
# ================================================================
! ZINDO/S 
! NOPOP
! NOMOPRINT
* xyz 0   1
 C  6.49170  -8.76441  37.67434
 C  6.59122  -7.62956  36.86805
 C  6.09601  -6.43488  37.47779
 C  5.60296  -6.62736  38.77208
 S  5.80288  -8.24283  39.08946
 H  6.78175  -7.70902  35.74419
 C  6.20636  -5.08437  36.59422
 C  7.76679  -5.04687  35.85419
 C  8.30838  -3.85812  34.77711
 H  8.50306  -2.89994  35.39118
 H  7.45733  -3.65675  34.02219
 H  8.51306  -5.05197  36.73605
 H  7.88305  -6.02503  35.25745
 H  5.41285  -5.08124  35.75190
 H  6.08271  -4.13302  37.24240
 C  9.67326  -4.26370  33.96631
 C  11.15053  -3.50995  34.30705
 C  12.17504  -4.22291  35.43206
 H  11.61590  -4.35185  36.43577
 H  13.09695  -3.53795  35.58623
 H  12.52402  -5.25403  35.03923
 H  11.73267  -3.45221  33.30956
 H  10.91800  -2.43962  34.66673
 H  9.48028  -4.10541  32.83390
 H  9.86521  -5.39775  34.13505
 C  -4.10709  5.55512  -37.25506
 C  -5.42138  5.85496  -36.89363
 C  -5.59355  6.14250  -35.50368
 C  -4.40923  6.06934  -34.76384
 S  -3.22802  5.65851  -35.85305
 H  -6.28669  5.90299  -37.63761
 C  -6.93655  6.53503  -34.66577
 C  -8.47347  5.80486  -34.34042
 C  -10.04480  5.69248  -35.00984
 H  -10.79198  5.90906  -34.15169
 H  -10.13868  6.53125  -35.79799
 H  -8.16903  4.69577  -34.19188
 H  -8.70991  6.25151  -33.28983
 H  -6.57697  6.77469  -33.57316
 H  -7.28884  7.56060  -35.11914
 C  -10.40028  4.25230  -35.67750
 C  -10.78043  4.17755  -37.31692
 C  -12.42821  3.96456  -37.59936
 H  -13.01289  4.88996  -37.22823
 H  -12.78964  3.02182  -37.03175
 H  -12.60188  3.81877  -38.73416
 H  -10.45884  5.16726  -37.81251
 H  -10.20544  3.30104  -37.79188
 H  -9.50849  3.52869  -35.52052
 H  -11.31286  3.81289  -35.10714
 H  6.79296  -9.75160  37.43291
 H  5.18826  -5.89423  39.41562
 H  -3.74686  5.31246  -38.22199
 H  -4.29117  6.24059  -33.72445
*
