# ================================================================
# Orca input file made by Matty Jones
# ================================================================
! ZINDO/S 
! NOPOP
! NOMOPRINT
* xyz 0   1
 C  6.99478  -2.28800  39.79952
 C  5.91235  -2.95376  40.37658
 C  4.88176  -2.08647  40.85613
 C  5.15178  -0.72903  40.65673
 S  6.63062  -0.67409  39.90812
 H  5.39382  -3.98274  40.12350
 C  3.48730  -2.51154  41.55593
 C  2.28621  -3.00019  40.44869
 C  1.51856  -1.56206  39.92351
 H  0.96035  -1.16012  40.85791
 H  2.38789  -0.83335  39.67988
 H  2.75859  -3.53921  39.55646
 H  1.51735  -3.66535  40.97793
 H  3.05304  -1.66604  42.21668
 H  3.67048  -3.42846  42.25490
 C  0.48297  -1.49085  38.66499
 C  -1.18745  -1.52781  38.91784
 C  -1.88551  -3.04737  38.77829
 H  -1.18008  -3.83955  39.23962
 H  -2.05809  -3.28528  37.65824
 H  -2.89993  -3.05495  39.33536
 H  -1.67850  -0.83663  38.13477
 H  -1.40428  -1.12122  39.97373
 H  0.69291  -0.50434  38.08901
 H  0.72399  -2.37557  37.95488
 C  2.18672  2.62675  -41.19511
 C  0.84335  2.81899  -40.86909
 C  0.61622  3.13901  -39.49422
 C  1.78616  3.19978  -38.73075
 S  3.02263  2.85914  -39.78219
 H  -0.00643  2.73048  -41.62643
 C  -0.74516  3.44918  -38.64228
 C  -2.25562  2.68625  -38.24464
 C  -3.84632  2.58411  -38.84571
 H  -4.52364  2.88382  -37.94606
 H  -3.92428  3.43299  -39.63323
 H  -1.93607  1.57138  -38.18372
 H  -2.42852  3.07101  -37.16142
 H  -1.16978  4.44210  -39.13282
 H  -0.38533  3.75570  -37.56761
 C  -4.49929  1.24164  -39.48987
 C  -4.49421  1.16576  -41.16758
 C  -5.70447  0.14317  -41.73824
 H  -5.68288  -0.85419  -41.15392
 H  -5.53962  -0.05435  -42.86562
 H  -6.73043  0.65987  -41.58375
 H  -4.66105  2.21976  -41.59758
 H  -3.47453  0.75730  -41.51433
 H  -3.91886  0.31555  -39.10170
 H  -5.59898  1.14713  -39.13687
 H  7.86598  -2.72252  39.38023
 H  4.53946  0.09280  40.92739
 H  2.58798  2.38347  -42.14558
 H  1.86600  3.41789  -37.69651
*
