# ================================================================
# Orca input file made by Matty Jones
# ================================================================
! ZINDO/S 
! NOPOP
! NOMOPRINT
* xyz 0   1
 C  10.54897  -8.18542  34.29016
 C  9.65616  -9.17121  34.71324
 C  8.59758  -8.68363  35.54145
 C  8.65479  -7.30588  35.77351
 S  9.99329  -6.77101  34.95330
 H  9.86711  -10.26823  35.06709
 C  7.51649  -9.76795  36.05648
 C  5.88616  -9.55593  36.48528
 C  5.12301  -8.08577  36.80210
 H  5.69480  -7.22004  36.30709
 H  4.04281  -8.11951  36.40023
 H  5.28464  -10.00612  35.59919
 H  5.71736  -10.23948  37.40384
 H  7.97544  -10.27601  37.00845
 H  7.45395  -10.60598  35.23592
 C  5.13449  -7.96768  38.42721
 C  4.42291  -6.62485  39.11584
 C  3.66135  -5.54873  38.07678
 H  3.11960  -6.14063  37.24161
 H  4.45473  -4.85130  37.60292
 H  2.88030  -4.91036  38.63867
 H  3.71458  -7.00982  39.92767
 H  5.29682  -6.10841  39.62498
 H  4.57236  -8.88785  38.86371
 H  6.23079  -8.02043  38.80046
 C  -2.11956  8.46295  -38.14835
 C  -3.46294  8.65519  -37.82233
 C  -3.69006  8.97521  -36.44746
 C  -2.52013  9.03598  -35.68399
 S  -1.28365  8.69534  -36.73543
 H  -4.31272  8.56668  -38.57967
 C  -5.05145  9.28538  -35.59552
 C  -6.56190  8.52245  -35.19788
 C  -8.15260  8.42031  -35.79895
 H  -8.82992  8.72002  -34.89930
 H  -8.23056  9.26919  -36.58647
 H  -6.24236  7.40758  -35.13696
 H  -6.73480  8.90721  -34.11467
 H  -5.47607  10.27830  -36.08606
 H  -4.69162  9.59189  -34.52085
 C  -8.80557  7.07784  -36.44311
 C  -8.80050  7.00196  -38.12082
 C  -10.01075  5.97937  -38.69148
 H  -9.98917  4.98201  -38.10716
 H  -9.84591  5.78185  -39.81886
 H  -11.03671  6.49607  -38.53699
 H  -8.96734  8.05596  -38.55082
 H  -7.78081  6.59350  -38.46757
 H  -8.22514  6.15175  -36.05494
 H  -9.90527  6.98333  -36.09011
 H  11.40236  -8.31388  33.67466
 H  7.98325  -6.72496  36.35246
 H  -1.71830  8.21967  -39.09882
 H  -2.44028  9.25409  -34.64975
*
